/*---------------------------------------------------------------------------*\
  =========                 |
  \\      /  F ield         | OpenFOAM: The Open Source CFD Toolbox
   \\    /   O peration     | Website:  https://openfoam.org
    \\  /    A nd           | Version:  11
     \\/     M anipulation  |
\*---------------------------------------------------------------------------*/
Build  : 11-e1fc8c682ae6
Exec   : foamRun -solver incompressibleFluid -parallel
Date   : Feb 09 2026
Time   : 13:51:15
Host   : "ip-172-31-18-192"
PID    : 136648
I/O    : uncollated
Case   : /home/ubuntu/cases/bifurcation_angle60_500_ascii/Re200
nProcs : 16
Slaves : 
15
(
"ip-172-31-18-192.136649"
"ip-172-31-18-192.136650"
"ip-172-31-18-192.136651"
"ip-172-31-18-192.136652"
"ip-172-31-18-192.136653"
"ip-172-31-18-192.136654"
"ip-172-31-18-192.136655"
"ip-172-31-18-192.136656"
"ip-172-31-18-192.136657"
"ip-172-31-18-192.136658"
"ip-172-31-18-192.136659"
"ip-172-31-18-192.136660"
"ip-172-31-18-192.136661"
"ip-172-31-18-192.136662"
"ip-172-31-18-192.136663"
)

Pstream initialised with:
    floatTransfer      : false
    nProcsSimpleSum    : 0
    commsType          : nonBlocking
    polling iterations : 0
sigFpe : Enabling floating point exception trapping (FOAM_SIGFPE).
fileModificationChecking : Monitoring run-time modified files using timeStampMaster (fileModificationSkew 10)
allowSystemOperations : Allowing user-supplied system call operations

// * * * * * * * * * * * * * * * * * * * * * * * * * * * * * * * * * * * * * //
Create time

Create mesh for time = 0

Selecting solver incompressibleFluid
Selecting viscosity model Newtonian
Selecting turbulence model type laminar
Selecting laminar stress model Stokes
No MRF models present


SIMPLE: Convergence criteria found
        p: tolerance 1e-05
        U: tolerance 1e-05


SIMPLE: Operating solver in steady-state mode with 1 outer corrector
SIMPLE: Operating solver in SIMPLE mode



Starting time loop

wallShearStress wallShearStress:
    processing wall patches: 
        wall-fluid_domain

Time = 1s

smoothSolver:  Solving for Ux, Initial residual = 1, Final residual = 0.039379209, No Iterations 1
smoothSolver:  Solving for Uy, Initial residual = 1, Final residual = 0.048845878, No Iterations 1
smoothSolver:  Solving for Uz, Initial residual = 1, Final residual = 0.020429459, No Iterations 1
GAMG:  Solving for p, Initial residual = 1, Final residual = 0.0080078442, No Iterations 10
time step continuity errors : sum local = 0.00016506746, global = -4.8267036e-06, cumulative = -4.8267036e-06
ExecutionTime = 0.516525 s  ClockTime = 0 s

Time = 2s

smoothSolver:  Solving for Ux, Initial residual = 0.2870624, Final residual = 0.015985783, No Iterations 2
smoothSolver:  Solving for Uy, Initial residual = 0.33018806, Final residual = 0.015166443, No Iterations 2
smoothSolver:  Solving for Uz, Initial residual = 0.32365524, Final residual = 0.026701718, No Iterations 2
GAMG:  Solving for p, Initial residual = 0.27162446, Final residual = 0.0020929448, No Iterations 6
time step continuity errors : sum local = 0.0041594695, global = -0.00013913163, cumulative = -0.00014395833
ExecutionTime = 0.661009 s  ClockTime = 0 s

Time = 3s

smoothSolver:  Solving for Ux, Initial residual = 0.19841439, Final residual = 0.018354096, No Iterations 2
smoothSolver:  Solving for Uy, Initial residual = 0.13310042, Final residual = 0.0079678195, No Iterations 2
smoothSolver:  Solving for Uz, Initial residual = 0.62407275, Final residual = 0.022379321, No Iterations 3
GAMG:  Solving for p, Initial residual = 0.12202183, Final residual = 0.00069691173, No Iterations 3
time step continuity errors : sum local = 0.0063310121, global = 0.00015580524, cumulative = 1.1846912e-05
ExecutionTime = 0.781762 s  ClockTime = 1 s

Time = 4s

smoothSolver:  Solving for Ux, Initial residual = 0.13038036, Final residual = 0.012950465, No Iterations 2
smoothSolver:  Solving for Uy, Initial residual = 0.070479876, Final residual = 0.0042541788, No Iterations 2
smoothSolver:  Solving for Uz, Initial residual = 0.47352222, Final residual = 0.017001973, No Iterations 3
GAMG:  Solving for p, Initial residual = 0.085010388, Final residual = 0.00075381166, No Iterations 5
time step continuity errors : sum local = 0.0068097934, global = 3.9289174e-05, cumulative = 5.1136087e-05
ExecutionTime = 0.917517 s  ClockTime = 1 s

Time = 5s

smoothSolver:  Solving for Ux, Initial residual = 0.10215711, Final residual = 0.0089564777, No Iterations 2
smoothSolver:  Solving for Uy, Initial residual = 0.18422563, Final residual = 0.012533927, No Iterations 2
smoothSolver:  Solving for Uz, Initial residual = 0.19644977, Final residual = 0.0070646514, No Iterations 3
GAMG:  Solving for p, Initial residual = 0.072418136, Final residual = 0.00066431041, No Iterations 6
time step continuity errors : sum local = 0.002990661, global = 0.00013364692, cumulative = 0.00018478301
ExecutionTime = 1.061134 s  ClockTime = 1 s

Time = 6s

smoothSolver:  Solving for Ux, Initial residual = 0.12737837, Final residual = 0.0091735324, No Iterations 2
smoothSolver:  Solving for Uy, Initial residual = 0.40513278, Final residual = 0.026840005, No Iterations 2
smoothSolver:  Solving for Uz, Initial residual = 0.10133192, Final residual = 0.0035910622, No Iterations 3
GAMG:  Solving for p, Initial residual = 0.37768883, Final residual = 0.0016920347, No Iterations 5
time step continuity errors : sum local = 0.0041316933, global = -5.8941865e-05, cumulative = 0.00012584114
ExecutionTime = 1.197529 s  ClockTime = 1 s

Time = 7s

smoothSolver:  Solving for Ux, Initial residual = 0.14827543, Final residual = 0.012634094, No Iterations 2
smoothSolver:  Solving for Uy, Initial residual = 0.25288524, Final residual = 0.016135661, No Iterations 2
smoothSolver:  Solving for Uz, Initial residual = 0.32189866, Final residual = 0.011558336, No Iterations 3
GAMG:  Solving for p, Initial residual = 0.21566728, Final residual = 0.0021550035, No Iterations 3
time step continuity errors : sum local = 0.010514957, global = -0.00023158997, cumulative = -0.00010574882
ExecutionTime = 1.319362 s  ClockTime = 1 s

Time = 8s

smoothSolver:  Solving for Ux, Initial residual = 0.11684089, Final residual = 0.010917933, No Iterations 2
smoothSolver:  Solving for Uy, Initial residual = 0.13434374, Final residual = 0.0090347409, No Iterations 2
smoothSolver:  Solving for Uz, Initial residual = 0.33850175, Final residual = 0.012149866, No Iterations 3
GAMG:  Solving for p, Initial residual = 0.16648357, Final residual = 0.00090401655, No Iterations 5
time step continuity errors : sum local = 0.0037877085, global = -9.6451028e-06, cumulative = -0.00011539393
ExecutionTime = 1.454764 s  ClockTime = 1 s

Time = 9s

smoothSolver:  Solving for Ux, Initial residual = 0.097535299, Final residual = 0.0084676468, No Iterations 2
smoothSolver:  Solving for Uy, Initial residual = 0.253431, Final residual = 0.019871926, No Iterations 2
smoothSolver:  Solving for Uz, Initial residual = 0.11302991, Final residual = 0.0040064851, No Iterations 3
GAMG:  Solving for p, Initial residual = 0.17724685, Final residual = 0.00087623932, No Iterations 6
time step continuity errors : sum local = 0.0013860012, global = -4.7852948e-05, cumulative = -0.00016324687
ExecutionTime = 1.599564 s  ClockTime = 1 s

Time = 10s

smoothSolver:  Solving for Ux, Initial residual = 0.10859936, Final residual = 0.0086087123, No Iterations 2
smoothSolver:  Solving for Uy, Initial residual = 0.39820514, Final residual = 0.02881291, No Iterations 2
smoothSolver:  Solving for Uz, Initial residual = 0.10439802, Final residual = 0.0037630487, No Iterations 3
GAMG:  Solving for p, Initial residual = 0.25702716, Final residual = 0.0023770044, No Iterations 4
time step continuity errors : sum local = 0.0037939385, global = -6.962112e-05, cumulative = -0.00023286799
ExecutionTime = 1.728521 s  ClockTime = 1 s

Time = 11s

smoothSolver:  Solving for Ux, Initial residual = 0.089649112, Final residual = 0.0078495315, No Iterations 2
smoothSolver:  Solving for Uy, Initial residual = 0.23137796, Final residual = 0.015524477, No Iterations 2
smoothSolver:  Solving for Uz, Initial residual = 0.15880811, Final residual = 0.0057233131, No Iterations 3
GAMG:  Solving for p, Initial residual = 0.18109603, Final residual = 0.0012526875, No Iterations 4
time step continuity errors : sum local = 0.0030278633, global = 2.4752326e-05, cumulative = -0.00020811567
ExecutionTime = 1.856485 s  ClockTime = 2 s

Time = 12s

smoothSolver:  Solving for Ux, Initial residual = 0.056722302, Final residual = 0.005483612, No Iterations 2
smoothSolver:  Solving for Uy, Initial residual = 0.14832829, Final residual = 0.011679286, No Iterations 2
smoothSolver:  Solving for Uz, Initial residual = 0.10882219, Final residual = 0.0039212804, No Iterations 3
GAMG:  Solving for p, Initial residual = 0.14257098, Final residual = 0.0010525128, No Iterations 5
time step continuity errors : sum local = 0.0018951934, global = -3.5574367e-06, cumulative = -0.0002116731
ExecutionTime = 1.992354 s  ClockTime = 2 s

Time = 13s

smoothSolver:  Solving for Ux, Initial residual = 0.047639059, Final residual = 0.0041327504, No Iterations 2
smoothSolver:  Solving for Uy, Initial residual = 0.3113308, Final residual = 0.025964487, No Iterations 2
smoothSolver:  Solving for Uz, Initial residual = 0.02348992, Final residual = 0.00076444826, No Iterations 3
GAMG:  Solving for p, Initial residual = 0.25294545, Final residual = 0.0010757874, No Iterations 6
time step continuity errors : sum local = 0.00058933766, global = 2.4259435e-05, cumulative = -0.00018741367
ExecutionTime = 2.137492 s  ClockTime = 2 s

Time = 14s

smoothSolver:  Solving for Ux, Initial residual = 0.05109504, Final residual = 0.0042540354, No Iterations 2
smoothSolver:  Solving for Uy, Initial residual = 0.3329592, Final residual = 0.025609409, No Iterations 2
smoothSolver:  Solving for Uz, Initial residual = 0.055693922, Final residual = 0.0019928771, No Iterations 3
GAMG:  Solving for p, Initial residual = 0.24663827, Final residual = 0.0017055366, No Iterations 4
time step continuity errors : sum local = 0.0015270098, global = 1.7369872e-05, cumulative = -0.0001700438
ExecutionTime = 2.265847 s  ClockTime = 2 s

Time = 15s

smoothSolver:  Solving for Ux, Initial residual = 0.0425822, Final residual = 0.0038034575, No Iterations 2
smoothSolver:  Solving for Uy, Initial residual = 0.1805487, Final residual = 0.0127874, No Iterations 2
smoothSolver:  Solving for Uz, Initial residual = 0.077215112, Final residual = 0.0027644486, No Iterations 3
GAMG:  Solving for p, Initial residual = 0.18283468, Final residual = 0.0015487695, No Iterations 4
time step continuity errors : sum local = 0.0017215712, global = -1.9518758e-05, cumulative = -0.00018956256
ExecutionTime = 2.395728 s  ClockTime = 2 s

Time = 16s

smoothSolver:  Solving for Ux, Initial residual = 0.030220739, Final residual = 0.0029291143, No Iterations 2
smoothSolver:  Solving for Uy, Initial residual = 0.14556107, Final residual = 0.012425103, No Iterations 2
smoothSolver:  Solving for Uz, Initial residual = 0.048236739, Final residual = 0.0017176664, No Iterations 3
GAMG:  Solving for p, Initial residual = 0.14725384, Final residual = 0.0012666185, No Iterations 5
time step continuity errors : sum local = 0.00091228254, global = 1.9357047e-06, cumulative = -0.00018762685
ExecutionTime = 2.531465 s  ClockTime = 2 s

Time = 17s

smoothSolver:  Solving for Ux, Initial residual = 0.027991166, Final residual = 0.0023883591, No Iterations 2
smoothSolver:  Solving for Uy, Initial residual = 0.27527327, Final residual = 0.023316005, No Iterations 2
smoothSolver:  Solving for Uz, Initial residual = 0.0099903024, Final residual = 0.00092315586, No Iterations 2
GAMG:  Solving for p, Initial residual = 0.44006362, Final residual = 0.003705144, No Iterations 5
time step continuity errors : sum local = 0.00062843478, global = 3.130366e-06, cumulative = -0.00018449649
ExecutionTime = 2.665408 s  ClockTime = 2 s

Time = 18s

smoothSolver:  Solving for Ux, Initial residual = 0.027567452, Final residual = 0.0024024384, No Iterations 2
smoothSolver:  Solving for Uy, Initial residual = 0.24133606, Final residual = 0.018997701, No Iterations 2
smoothSolver:  Solving for Uz, Initial residual = 0.03217134, Final residual = 0.0011715562, No Iterations 3
GAMG:  Solving for p, Initial residual = 0.19472058, Final residual = 0.001069455, No Iterations 4
time step continuity errors : sum local = 0.0005926874, global = -5.2752111e-06, cumulative = -0.0001897717
ExecutionTime = 2.792976 s  ClockTime = 3 s

Time = 19s

smoothSolver:  Solving for Ux, Initial residual = 0.020198353, Final residual = 0.0018886089, No Iterations 2
smoothSolver:  Solving for Uy, Initial residual = 0.13281343, Final residual = 0.010086918, No Iterations 2
smoothSolver:  Solving for Uz, Initial residual = 0.034209749, Final residual = 0.0012432007, No Iterations 3
GAMG:  Solving for p, Initial residual = 0.15093897, Final residual = 0.00065073, No Iterations 5
time step continuity errors : sum local = 0.00038017264, global = 2.0487074e-06, cumulative = -0.00018772299
ExecutionTime = 2.92919 s  ClockTime = 3 s

Time = 20s

smoothSolver:  Solving for Ux, Initial residual = 0.015179893, Final residual = 0.0015034019, No Iterations 2
smoothSolver:  Solving for Uy, Initial residual = 0.13379123, Final residual = 0.012121183, No Iterations 2
smoothSolver:  Solving for Uz, Initial residual = 0.017287918, Final residual = 0.00062748425, No Iterations 3
GAMG:  Solving for p, Initial residual = 0.11565779, Final residual = 0.00045172932, No Iterations 6
time step continuity errors : sum local = 0.0001636926, global = 6.5664741e-06, cumulative = -0.00018115651
ExecutionTime = 3.072698 s  ClockTime = 3 s

Time = 21s

smoothSolver:  Solving for Ux, Initial residual = 0.014401542, Final residual = 0.0012681052, No Iterations 2
smoothSolver:  Solving for Uy, Initial residual = 0.18993034, Final residual = 0.016467517, No Iterations 2
smoothSolver:  Solving for Uz, Initial residual = 0.0062929941, Final residual = 0.00060973459, No Iterations 2
GAMG:  Solving for p, Initial residual = 0.31745143, Final residual = 0.0019553699, No Iterations 5
time step continuity errors : sum local = 0.00025197795, global = -2.2448194e-06, cumulative = -0.00018340133
ExecutionTime = 3.20903 s  ClockTime = 3 s

Time = 22s

smoothSolver:  Solving for Ux, Initial residual = 0.012558786, Final residual = 0.0010881082, No Iterations 2
smoothSolver:  Solving for Uy, Initial residual = 0.14585561, Final residual = 0.011814245, No Iterations 2
smoothSolver:  Solving for Uz, Initial residual = 0.015565199, Final residual = 0.00054866197, No Iterations 3
GAMG:  Solving for p, Initial residual = 0.18894468, Final residual = 0.0011856428, No Iterations 4
time step continuity errors : sum local = 0.00032705543, global = -4.4114902e-06, cumulative = -0.00018781282
ExecutionTime = 3.338001 s  ClockTime = 3 s

Time = 23s

smoothSolver:  Solving for Ux, Initial residual = 0.0087724252, Final residual = 0.00080709553, No Iterations 2
smoothSolver:  Solving for Uy, Initial residual = 0.081071345, Final residual = 0.0065237497, No Iterations 2
smoothSolver:  Solving for Uz, Initial residual = 0.014521264, Final residual = 0.00051054314, No Iterations 3
GAMG:  Solving for p, Initial residual = 0.14754941, Final residual = 0.00076435079, No Iterations 5
time step continuity errors : sum local = 0.00019884067, global = -8.9425289e-07, cumulative = -0.00018870708
ExecutionTime = 3.475294 s  ClockTime = 3 s

Time = 24s

smoothSolver:  Solving for Ux, Initial residual = 0.0075393642, Final residual = 0.00071153703, No Iterations 2
smoothSolver:  Solving for Uy, Initial residual = 0.093658704, Final residual = 0.0086113463, No Iterations 2
smoothSolver:  Solving for Uz, Initial residual = 0.0057322783, Final residual = 0.00018799155, No Iterations 3
GAMG:  Solving for p, Initial residual = 0.13092754, Final residual = 0.00052998823, No Iterations 6
time step continuity errors : sum local = 7.3599934e-05, global = -2.8163003e-06, cumulative = -0.00019152338
ExecutionTime = 3.619643 s  ClockTime = 3 s

Time = 25s

smoothSolver:  Solving for Ux, Initial residual = 0.0079273384, Final residual = 0.00072675265, No Iterations 2
smoothSolver:  Solving for Uy, Initial residual = 0.11161817, Final residual = 0.0098388963, No Iterations 2
smoothSolver:  Solving for Uz, Initial residual = 0.0061198382, Final residual = 0.00021577633, No Iterations 3
GAMG:  Solving for p, Initial residual = 0.13023089, Final residual = 0.00057898706, No Iterations 5
time step continuity errors : sum local = 9.7249274e-05, global = 4.5964983e-07, cumulative = -0.00019106373
ExecutionTime = 3.755959 s  ClockTime = 4 s

Time = 26s

smoothSolver:  Solving for Ux, Initial residual = 0.0068472528, Final residual = 0.00064832043, No Iterations 2
smoothSolver:  Solving for Uy, Initial residual = 0.081081538, Final residual = 0.0069591234, No Iterations 2
smoothSolver:  Solving for Uz, Initial residual = 0.008797396, Final residual = 0.00032132435, No Iterations 3
GAMG:  Solving for p, Initial residual = 0.10900986, Final residual = 0.00085743437, No Iterations 4
time step continuity errors : sum local = 0.00019023513, global = 1.4732311e-06, cumulative = -0.0001895905
ExecutionTime = 3.88397 s  ClockTime = 4 s

Time = 27s

smoothSolver:  Solving for Ux, Initial residual = 0.0051820921, Final residual = 0.00016694252, No Iterations 3
smoothSolver:  Solving for Uy, Initial residual = 0.052148004, Final residual = 0.0048362769, No Iterations 2
smoothSolver:  Solving for Uz, Initial residual = 0.0073308162, Final residual = 0.0002652521, No Iterations 3
GAMG:  Solving for p, Initial residual = 0.078499252, Final residual = 0.0005008739, No Iterations 5
time step continuity errors : sum local = 0.00010114975, global = -4.6648945e-08, cumulative = -0.00018963715
ExecutionTime = 4.020419 s  ClockTime = 4 s

Time = 28s

smoothSolver:  Solving for Ux, Initial residual = 0.0049667064, Final residual = 0.00015616389, No Iterations 3
smoothSolver:  Solving for Uy, Initial residual = 0.060799449, Final residual = 0.0057993172, No Iterations 2
smoothSolver:  Solving for Uz, Initial residual = 0.0044098028, Final residual = 0.00015179954, No Iterations 3
GAMG:  Solving for p, Initial residual = 0.063232766, Final residual = 0.0005920787, No Iterations 5
time step continuity errors : sum local = 8.3670906e-05, global = -7.9019576e-07, cumulative = -0.00019042734
ExecutionTime = 4.157065 s  ClockTime = 4 s

Time = 29s

smoothSolver:  Solving for Ux, Initial residual = 0.0045985268, Final residual = 0.00043700957, No Iterations 2
smoothSolver:  Solving for Uy, Initial residual = 0.061856242, Final residual = 0.005658406, No Iterations 2
smoothSolver:  Solving for Uz, Initial residual = 0.0034445003, Final residual = 0.00011091307, No Iterations 3
GAMG:  Solving for p, Initial residual = 0.12248024, Final residual = 0.00098750161, No Iterations 4
time step continuity errors : sum local = 9.8060259e-05, global = 1.4917436e-06, cumulative = -0.0001889356
ExecutionTime = 4.284275 s  ClockTime = 4 s

Time = 30s

smoothSolver:  Solving for Ux, Initial residual = 0.0036344172, Final residual = 0.00034703348, No Iterations 2
smoothSolver:  Solving for Uy, Initial residual = 0.044495224, Final residual = 0.004080125, No Iterations 2
smoothSolver:  Solving for Uz, Initial residual = 0.0037735402, Final residual = 0.0001245869, No Iterations 3
GAMG:  Solving for p, Initial residual = 0.10287061, Final residual = 0.00083948163, No Iterations 4
time step continuity errors : sum local = 9.6812629e-05, global = -5.077863e-07, cumulative = -0.00018944338
ExecutionTime = 4.410908 s  ClockTime = 4 s

Time = 31s

smoothSolver:  Solving for Ux, Initial residual = 0.0031114948, Final residual = 9.7888509e-05, No Iterations 3
smoothSolver:  Solving for Uy, Initial residual = 0.035060068, Final residual = 0.0034688292, No Iterations 2
smoothSolver:  Solving for Uz, Initial residual = 0.0031743451, Final residual = 0.0001042461, No Iterations 3
GAMG:  Solving for p, Initial residual = 0.074949875, Final residual = 0.00047117726, No Iterations 5
time step continuity errors : sum local = 4.7267354e-05, global = -1.9309045e-07, cumulative = -0.00018963647
ExecutionTime = 4.54858 s  ClockTime = 4 s

Time = 32s

smoothSolver:  Solving for Ux, Initial residual = 0.0033185549, Final residual = 0.00010557952, No Iterations 3
smoothSolver:  Solving for Uy, Initial residual = 0.039846351, Final residual = 0.0039355993, No Iterations 2
smoothSolver:  Solving for Uz, Initial residual = 0.0033633183, Final residual = 0.00011488625, No Iterations 3
GAMG:  Solving for p, Initial residual = 0.046268307, Final residual = 0.00029837744, No Iterations 5
time step continuity errors : sum local = 3.4264991e-05, global = 7.6371075e-08, cumulative = -0.0001895601
ExecutionTime = 4.686033 s  ClockTime = 4 s

Time = 33s

smoothSolver:  Solving for Ux, Initial residual = 0.0032785236, Final residual = 0.0001053532, No Iterations 3
smoothSolver:  Solving for Uy, Initial residual = 0.038184324, Final residual = 0.0037309434, No Iterations 2
smoothSolver:  Solving for Uz, Initial residual = 0.0038908298, Final residual = 0.00013652262, No Iterations 3
GAMG:  Solving for p, Initial residual = 0.046899501, Final residual = 0.00030001782, No Iterations 4
time step continuity errors : sum local = 4.1120779e-05, global = -2.7220194e-07, cumulative = -0.00018983231
ExecutionTime = 4.816577 s  ClockTime = 5 s

Time = 34s

smoothSolver:  Solving for Ux, Initial residual = 0.0029121505, Final residual = 9.7133394e-05, No Iterations 3
smoothSolver:  Solving for Uy, Initial residual = 0.030592345, Final residual = 0.00097627299, No Iterations 3
smoothSolver:  Solving for Uz, Initial residual = 0.0039296335, Final residual = 0.00013852826, No Iterations 3
GAMG:  Solving for p, Initial residual = 0.040282739, Final residual = 0.00035993904, No Iterations 4
time step continuity errors : sum local = 5.1014756e-05, global = 6.8506363e-07, cumulative = -0.00018914724
ExecutionTime = 4.947414 s  ClockTime = 5 s

Time = 35s

smoothSolver:  Solving for Ux, Initial residual = 0.0027063485, Final residual = 9.1882149e-05, No Iterations 3
smoothSolver:  Solving for Uy, Initial residual = 0.027644946, Final residual = 0.00091847448, No Iterations 3
smoothSolver:  Solving for Uz, Initial residual = 0.0035480862, Final residual = 0.00012384108, No Iterations 3
GAMG:  Solving for p, Initial residual = 0.029681436, Final residual = 0.000175784, No Iterations 5
time step continuity errors : sum local = 2.3334614e-05, global = -1.7282293e-07, cumulative = -0.00018932006
ExecutionTime = 5.085877 s  ClockTime = 5 s

Time = 36s

smoothSolver:  Solving for Ux, Initial residual = 0.0026426154, Final residual = 8.8051855e-05, No Iterations 3
smoothSolver:  Solving for Uy, Initial residual = 0.028204288, Final residual = 0.00091901565, No Iterations 3
smoothSolver:  Solving for Uz, Initial residual = 0.0031085211, Final residual = 0.0001068549, No Iterations 3
GAMG:  Solving for p, Initial residual = 0.031727524, Final residual = 0.00030288374, No Iterations 4
time step continuity errors : sum local = 3.6099971e-05, global = 9.8719217e-07, cumulative = -0.00018833287
ExecutionTime = 5.216982 s  ClockTime = 5 s

Time = 37s

smoothSolver:  Solving for Ux, Initial residual = 0.0024878221, Final residual = 8.249013e-05, No Iterations 3
smoothSolver:  Solving for Uy, Initial residual = 0.026169078, Final residual = 0.00085295717, No Iterations 3
smoothSolver:  Solving for Uz, Initial residual = 0.0028763541, Final residual = 9.8031892e-05, No Iterations 3
GAMG:  Solving for p, Initial residual = 0.037863852, Final residual = 0.00020156678, No Iterations 4
time step continuity errors : sum local = 2.2335109e-05, global = 2.0690979e-07, cumulative = -0.00018812596
ExecutionTime = 5.346982 s  ClockTime = 5 s

Time = 38s

smoothSolver:  Solving for Ux, Initial residual = 0.0023331064, Final residual = 7.8617602e-05, No Iterations 3
smoothSolver:  Solving for Uy, Initial residual = 0.023506289, Final residual = 0.00079076256, No Iterations 3
smoothSolver:  Solving for Uz, Initial residual = 0.0028154539, Final residual = 9.6165375e-05, No Iterations 3
GAMG:  Solving for p, Initial residual = 0.033526378, Final residual = 0.00022697942, No Iterations 4
time step continuity errors : sum local = 2.5090417e-05, global = -8.1274501e-08, cumulative = -0.00018820724
ExecutionTime = 5.476915 s  ClockTime = 5 s

Time = 39s

smoothSolver:  Solving for Ux, Initial residual = 0.0022918026, Final residual = 7.8031978e-05, No Iterations 3
smoothSolver:  Solving for Uy, Initial residual = 0.023055674, Final residual = 0.0007860941, No Iterations 3
smoothSolver:  Solving for Uz, Initial residual = 0.0028513301, Final residual = 9.8226132e-05, No Iterations 3
GAMG:  Solving for p, Initial residual = 0.025840756, Final residual = 0.00020774902, No Iterations 4
time step continuity errors : sum local = 2.4051252e-05, global = -2.1701085e-07, cumulative = -0.00018842425
ExecutionTime = 5.609169 s  ClockTime = 5 s

Time = 40s

smoothSolver:  Solving for Ux, Initial residual = 0.0022736264, Final residual = 7.7692925e-05, No Iterations 3
smoothSolver:  Solving for Uy, Initial residual = 0.023010649, Final residual = 0.00078169218, No Iterations 3
smoothSolver:  Solving for Uz, Initial residual = 0.0029229015, Final residual = 0.00010164018, No Iterations 3
GAMG:  Solving for p, Initial residual = 0.023350274, Final residual = 0.00012908474, No Iterations 4
time step continuity errors : sum local = 1.5771688e-05, global = -1.0911897e-07, cumulative = -0.00018853337
ExecutionTime = 5.740672 s  ClockTime = 6 s

Time = 41s

smoothSolver:  Solving for Ux, Initial residual = 0.0022047779, Final residual = 7.5885679e-05, No Iterations 3
smoothSolver:  Solving for Uy, Initial residual = 0.021892264, Final residual = 0.00074821799, No Iterations 3
smoothSolver:  Solving for Uz, Initial residual = 0.0029428206, Final residual = 0.00010286289, No Iterations 3
GAMG:  Solving for p, Initial residual = 0.022605332, Final residual = 0.00010536857, No Iterations 4
time step continuity errors : sum local = 1.326637e-05, global = 2.2932662e-07, cumulative = -0.00018830404
ExecutionTime = 5.870053 s  ClockTime = 6 s

Time = 42s

smoothSolver:  Solving for Ux, Initial residual = 0.0021268907, Final residual = 7.3702435e-05, No Iterations 3
smoothSolver:  Solving for Uy, Initial residual = 0.020676073, Final residual = 0.00071418497, No Iterations 3
smoothSolver:  Solving for Uz, Initial residual = 0.0028786983, Final residual = 0.00010065884, No Iterations 3
GAMG:  Solving for p, Initial residual = 0.020886869, Final residual = 0.00012501623, No Iterations 4
time step continuity errors : sum local = 1.574997e-05, global = 2.4681513e-07, cumulative = -0.00018805723
ExecutionTime = 6.000869 s  ClockTime = 6 s

Time = 43s

smoothSolver:  Solving for Ux, Initial residual = 0.0020746391, Final residual = 7.1909038e-05, No Iterations 3
smoothSolver:  Solving for Uy, Initial residual = 0.020069688, Final residual = 0.00069408543, No Iterations 3
smoothSolver:  Solving for Uz, Initial residual = 0.0027624592, Final residual = 9.6337039e-05, No Iterations 3
GAMG:  Solving for p, Initial residual = 0.019985074, Final residual = 0.00011790532, No Iterations 4
time step continuity errors : sum local = 1.4571396e-05, global = 3.0423491e-07, cumulative = -0.00018775299
ExecutionTime = 6.132353 s  ClockTime = 6 s

Time = 44s

smoothSolver:  Solving for Ux, Initial residual = 0.0020308513, Final residual = 7.0270856e-05, No Iterations 3
smoothSolver:  Solving for Uy, Initial residual = 0.019580894, Final residual = 0.0006756083, No Iterations 3
smoothSolver:  Solving for Uz, Initial residual = 0.0026543935, Final residual = 9.2328739e-05, No Iterations 3
GAMG:  Solving for p, Initial residual = 0.020562051, Final residual = 9.1299257e-05, No Iterations 4
time step continuity errors : sum local = 1.1050912e-05, global = 1.508539e-07, cumulative = -0.00018760214
ExecutionTime = 6.263938 s  ClockTime = 6 s

Time = 45s

smoothSolver:  Solving for Ux, Initial residual = 0.001985431, Final residual = 6.8817289e-05, No Iterations 3
smoothSolver:  Solving for Uy, Initial residual = 0.018961696, Final residual = 0.00065634882, No Iterations 3
smoothSolver:  Solving for Uz, Initial residual = 0.0025844399, Final residual = 8.9859386e-05, No Iterations 3
GAMG:  Solving for p, Initial residual = 0.020515132, Final residual = 0.00013600273, No Iterations 3
time step continuity errors : sum local = 1.6319237e-05, global = 3.015005e-08, cumulative = -0.00018757199
ExecutionTime = 6.389786 s  ClockTime = 6 s

Time = 46s

smoothSolver:  Solving for Ux, Initial residual = 0.0019483797, Final residual = 6.7774514e-05, No Iterations 3
smoothSolver:  Solving for Uy, Initial residual = 0.018463708, Final residual = 0.00064208692, No Iterations 3
smoothSolver:  Solving for Uz, Initial residual = 0.0025460932, Final residual = 8.8683299e-05, No Iterations 3
GAMG:  Solving for p, Initial residual = 0.019421211, Final residual = 0.00018233575, No Iterations 3
time step continuity errors : sum local = 2.198859e-05, global = -2.3048878e-07, cumulative = -0.00018780248
ExecutionTime = 6.514177 s  ClockTime = 6 s

Time = 47s

smoothSolver:  Solving for Ux, Initial residual = 0.0019175497, Final residual = 6.6894924e-05, No Iterations 3
smoothSolver:  Solving for Uy, Initial residual = 0.018099036, Final residual = 0.00063088876, No Iterations 3
smoothSolver:  Solving for Uz, Initial residual = 0.0025254992, Final residual = 8.8225182e-05, No Iterations 3
GAMG:  Solving for p, Initial residual = 0.018286874, Final residual = 0.00017165117, No Iterations 3
time step continuity errors : sum local = 2.0963669e-05, global = -1.9865572e-07, cumulative = -0.00018800113
ExecutionTime = 6.63975 s  ClockTime = 6 s

Time = 48s

smoothSolver:  Solving for Ux, Initial residual = 0.0018854101, Final residual = 6.5936816e-05, No Iterations 3
smoothSolver:  Solving for Uy, Initial residual = 0.017675232, Final residual = 0.0006171727, No Iterations 3
smoothSolver:  Solving for Uz, Initial residual = 0.0025059151, Final residual = 8.7785928e-05, No Iterations 3
GAMG:  Solving for p, Initial residual = 0.017595714, Final residual = 0.0001368865, No Iterations 3
time step continuity errors : sum local = 1.6929481e-05, global = -4.3896148e-08, cumulative = -0.00018804503
ExecutionTime = 6.76278 s  ClockTime = 7 s

Time = 49s

smoothSolver:  Solving for Ux, Initial residual = 0.0018507842, Final residual = 6.4874858e-05, No Iterations 3
smoothSolver:  Solving for Uy, Initial residual = 0.017171932, Final residual = 0.00060124932, No Iterations 3
smoothSolver:  Solving for Uz, Initial residual = 0.002474271, Final residual = 8.6822688e-05, No Iterations 3
GAMG:  Solving for p, Initial residual = 0.017108212, Final residual = 0.00014055405, No Iterations 3
time step continuity errors : sum local = 1.7502024e-05, global = 2.9424036e-07, cumulative = -0.00018775079
ExecutionTime = 6.885975 s  ClockTime = 7 s

Time = 50s

smoothSolver:  Solving for Ux, Initial residual = 0.0018192885, Final residual = 6.3869017e-05, No Iterations 3
smoothSolver:  Solving for Uy, Initial residual = 0.016705421, Final residual = 0.00058653456, No Iterations 3
smoothSolver:  Solving for Uz, Initial residual = 0.0024329619, Final residual = 8.5440732e-05, No Iterations 3
GAMG:  Solving for p, Initial residual = 0.016688375, Final residual = 0.00016548926, No Iterations 3
time step continuity errors : sum local = 2.0650347e-05, global = 2.7811263e-07, cumulative = -0.00018747267
ExecutionTime = 7.011227 s  ClockTime = 7 s

Time = 51s

smoothSolver:  Solving for Ux, Initial residual = 0.0017917868, Final residual = 6.2927359e-05, No Iterations 3
smoothSolver:  Solving for Uy, Initial residual = 0.016311327, Final residual = 0.00057379429, No Iterations 3
smoothSolver:  Solving for Uz, Initial residual = 0.002383113, Final residual = 8.3682016e-05, No Iterations 3
GAMG:  Solving for p, Initial residual = 0.016456876, Final residual = 0.00016386675, No Iterations 3
time step continuity errors : sum local = 2.0394146e-05, global = 2.6413898e-07, cumulative = -0.00018720853
ExecutionTime = 7.135246 s  ClockTime = 7 s

Time = 52s

smoothSolver:  Solving for Ux, Initial residual = 0.0017665435, Final residual = 6.2042041e-05, No Iterations 3
smoothSolver:  Solving for Uy, Initial residual = 0.01595587, Final residual = 0.00056211428, No Iterations 3
smoothSolver:  Solving for Uz, Initial residual = 0.0023345504, Final residual = 8.1968568e-05, No Iterations 3
GAMG:  Solving for p, Initial residual = 0.01634736, Final residual = 0.00015313616, No Iterations 3
time step continuity errors : sum local = 1.8995697e-05, global = 2.3468768e-07, cumulative = -0.00018697385
ExecutionTime = 7.259391 s  ClockTime = 7 s

Time = 53s

smoothSolver:  Solving for Ux, Initial residual = 0.0017419675, Final residual = 6.1208094e-05, No Iterations 3
smoothSolver:  Solving for Uy, Initial residual = 0.015614917, Final residual = 0.00055111521, No Iterations 3
smoothSolver:  Solving for Uz, Initial residual = 0.002293538, Final residual = 8.056392e-05, No Iterations 3
GAMG:  Solving for p, Initial residual = 0.016131531, Final residual = 0.00011216402, No Iterations 3
time step continuity errors : sum local = 1.3902911e-05, global = 2.6178432e-07, cumulative = -0.00018671206
ExecutionTime = 7.383855 s  ClockTime = 7 s

Time = 54s

smoothSolver:  Solving for Ux, Initial residual = 0.0017182199, Final residual = 6.0425588e-05, No Iterations 3
smoothSolver:  Solving for Uy, Initial residual = 0.015287145, Final residual = 0.0005404214, No Iterations 3
smoothSolver:  Solving for Uz, Initial residual = 0.0022601591, Final residual = 7.9472582e-05, No Iterations 3
GAMG:  Solving for p, Initial residual = 0.015764376, Final residual = 7.932894e-05, No Iterations 3
time step continuity errors : sum local = 9.8578653e-06, global = 2.2822956e-07, cumulative = -0.00018648383
ExecutionTime = 7.508017 s  ClockTime = 7 s

Time = 55s

smoothSolver:  Solving for Ux, Initial residual = 0.0016955041, Final residual = 5.9675481e-05, No Iterations 3
smoothSolver:  Solving for Uy, Initial residual = 0.014965676, Final residual = 0.00052966644, No Iterations 3
smoothSolver:  Solving for Uz, Initial residual = 0.0022300339, Final residual = 7.8505537e-05, No Iterations 3
GAMG:  Solving for p, Initial residual = 0.015400003, Final residual = 8.9217827e-05, No Iterations 3
time step continuity errors : sum local = 1.1128261e-05, global = 1.8237092e-07, cumulative = -0.00018630146
ExecutionTime = 7.635429 s  ClockTime = 7 s

Time = 56s

smoothSolver:  Solving for Ux, Initial residual = 0.0016733195, Final residual = 5.8936951e-05, No Iterations 3
smoothSolver:  Solving for Uy, Initial residual = 0.014642306, Final residual = 0.00051856886, No Iterations 3
smoothSolver:  Solving for Uz, Initial residual = 0.0022013871, Final residual = 7.7586457e-05, No Iterations 3
GAMG:  Solving for p, Initial residual = 0.015081333, Final residual = 8.9381587e-05, No Iterations 3
time step continuity errors : sum local = 1.1193115e-05, global = 2.7020782e-07, cumulative = -0.00018603125
ExecutionTime = 7.761179 s  ClockTime = 8 s

Time = 57s

smoothSolver:  Solving for Ux, Initial residual = 0.001652138, Final residual = 5.8224877e-05, No Iterations 3
smoothSolver:  Solving for Uy, Initial residual = 0.014321867, Final residual = 0.00050739515, No Iterations 3
smoothSolver:  Solving for Uz, Initial residual = 0.0021729066, Final residual = 7.666234e-05, No Iterations 3
GAMG:  Solving for p, Initial residual = 0.014798529, Final residual = 0.00010086892, No Iterations 3
time step continuity errors : sum local = 1.267737e-05, global = 3.8599324e-07, cumulative = -0.00018564526
ExecutionTime = 7.886442 s  ClockTime = 8 s

Time = 58s

smoothSolver:  Solving for Ux, Initial residual = 0.0016322734, Final residual = 5.7545961e-05, No Iterations 3
smoothSolver:  Solving for Uy, Initial residual = 0.014016943, Final residual = 0.00049663691, No Iterations 3
smoothSolver:  Solving for Uz, Initial residual = 0.0021440109, Final residual = 7.5706236e-05, No Iterations 3
GAMG:  Solving for p, Initial residual = 0.014546299, Final residual = 0.00012758865, No Iterations 3
time step continuity errors : sum local = 1.6081698e-05, global = 3.2666819e-07, cumulative = -0.00018531859
ExecutionTime = 8.009737 s  ClockTime = 8 s

Time = 59s

smoothSolver:  Solving for Ux, Initial residual = 0.0016134845, Final residual = 5.6889761e-05, No Iterations 3
smoothSolver:  Solving for Uy, Initial residual = 0.013731963, Final residual = 0.00048644405, No Iterations 3
smoothSolver:  Solving for Uz, Initial residual = 0.0021140063, Final residual = 7.4690201e-05, No Iterations 3
GAMG:  Solving for p, Initial residual = 0.014334091, Final residual = 0.00013419498, No Iterations 3
time step continuity errors : sum local = 1.6942877e-05, global = 2.5424907e-07, cumulative = -0.00018506434
ExecutionTime = 8.134872 s  ClockTime = 8 s

Time = 60s

smoothSolver:  Solving for Ux, Initial residual = 0.0015958647, Final residual = 5.6263606e-05, No Iterations 3
smoothSolver:  Solving for Uy, Initial residual = 0.013464766, Final residual = 0.0004767809, No Iterations 3
smoothSolver:  Solving for Uz, Initial residual = 0.0020834386, Final residual = 7.3643249e-05, No Iterations 3
GAMG:  Solving for p, Initial residual = 0.014151841, Final residual = 0.00012918861, No Iterations 3
time step continuity errors : sum local = 1.6324388e-05, global = 2.0282974e-07, cumulative = -0.00018486151
ExecutionTime = 8.258264 s  ClockTime = 8 s

Time = 61s

smoothSolver:  Solving for Ux, Initial residual = 0.0015792911, Final residual = 5.5667782e-05, No Iterations 3
smoothSolver:  Solving for Uy, Initial residual = 0.013208623, Final residual = 0.00046745434, No Iterations 3
smoothSolver:  Solving for Uz, Initial residual = 0.0020538622, Final residual = 7.2631399e-05, No Iterations 3
GAMG:  Solving for p, Initial residual = 0.013977114, Final residual = 0.00011699118, No Iterations 3
time step continuity errors : sum local = 1.479558e-05, global = 1.727355e-07, cumulative = -0.00018468878
ExecutionTime = 8.382325 s  ClockTime = 8 s

Time = 62s

smoothSolver:  Solving for Ux, Initial residual = 0.0015634777, Final residual = 5.5099733e-05, No Iterations 3
smoothSolver:  Solving for Uy, Initial residual = 0.012958248, Final residual = 0.00045828, No Iterations 3
smoothSolver:  Solving for Uz, Initial residual = 0.0020262384, Final residual = 7.1695944e-05, No Iterations 3
GAMG:  Solving for p, Initial residual = 0.013790158, Final residual = 9.838134e-05, No Iterations 3
time step continuity errors : sum local = 1.2460248e-05, global = 1.844129e-07, cumulative = -0.00018450437
ExecutionTime = 8.505565 s  ClockTime = 8 s

Time = 63s

smoothSolver:  Solving for Ux, Initial residual = 0.001548387, Final residual = 5.4556371e-05, No Iterations 3
smoothSolver:  Solving for Uy, Initial residual = 0.012713357, Final residual = 0.00044931854, No Iterations 3
smoothSolver:  Solving for Uz, Initial residual = 0.0020004845, Final residual = 7.0832062e-05, No Iterations 3
GAMG:  Solving for p, Initial residual = 0.01358985, Final residual = 8.9569431e-05, No Iterations 3
time step continuity errors : sum local = 1.1368229e-05, global = 2.1370816e-07, cumulative = -0.00018429066
ExecutionTime = 8.629191 s  ClockTime = 8 s

Time = 64s

smoothSolver:  Solving for Ux, Initial residual = 0.0015341062, Final residual = 5.4036552e-05, No Iterations 3
smoothSolver:  Solving for Uy, Initial residual = 0.012474501, Final residual = 0.00044058249, No Iterations 3
smoothSolver:  Solving for Uz, Initial residual = 0.0019759373, Final residual = 7.0010155e-05, No Iterations 3
GAMG:  Solving for p, Initial residual = 0.013394984, Final residual = 9.3261945e-05, No Iterations 3
time step continuity errors : sum local = 1.1865344e-05, global = 2.5547214e-07, cumulative = -0.00018403519
ExecutionTime = 8.752747 s  ClockTime = 9 s

Time = 65s

smoothSolver:  Solving for Ux, Initial residual = 0.0015205124, Final residual = 5.3530462e-05, No Iterations 3
smoothSolver:  Solving for Uy, Initial residual = 0.012242999, Final residual = 0.00043218079, No Iterations 3
smoothSolver:  Solving for Uz, Initial residual = 0.0019520751, Final residual = 6.9207481e-05, No Iterations 3
GAMG:  Solving for p, Initial residual = 0.013216481, Final residual = 0.00010114662, No Iterations 3
time step continuity errors : sum local = 1.2898841e-05, global = 2.8709385e-07, cumulative = -0.00018374809
ExecutionTime = 8.875702 s  ClockTime = 9 s

Time = 66s

smoothSolver:  Solving for Ux, Initial residual = 0.0015074291, Final residual = 5.3036419e-05, No Iterations 3
smoothSolver:  Solving for Uy, Initial residual = 0.012021266, Final residual = 0.00042419102, No Iterations 3
smoothSolver:  Solving for Uz, Initial residual = 0.0019286642, Final residual = 6.8413737e-05, No Iterations 3
GAMG:  Solving for p, Initial residual = 0.013054554, Final residual = 0.00010717417, No Iterations 3
time step continuity errors : sum local = 1.3696999e-05, global = 2.8733932e-07, cumulative = -0.00018346075
ExecutionTime = 8.999393 s  ClockTime = 9 s

Time = 67s

smoothSolver:  Solving for Ux, Initial residual = 0.0014947616, Final residual = 5.2557651e-05, No Iterations 3
smoothSolver:  Solving for Uy, Initial residual = 0.011807335, Final residual = 0.00041658798, No Iterations 3
smoothSolver:  Solving for Uz, Initial residual = 0.0019056166, Final residual = 6.7626188e-05, No Iterations 3
GAMG:  Solving for p, Initial residual = 0.01290127, Final residual = 0.00010869592, No Iterations 3
time step continuity errors : sum local = 1.3917946e-05, global = 2.7407497e-07, cumulative = -0.00018318668
ExecutionTime = 9.123352 s  ClockTime = 9 s

Time = 68s

smoothSolver:  Solving for Ux, Initial residual = 0.0014827125, Final residual = 5.2103982e-05, No Iterations 3
smoothSolver:  Solving for Uy, Initial residual = 0.011600128, Final residual = 0.00040929776, No Iterations 3
smoothSolver:  Solving for Uz, Initial residual = 0.0018829317, Final residual = 6.6847538e-05, No Iterations 3
GAMG:  Solving for p, Initial residual = 0.012749107, Final residual = 0.00010611179, No Iterations 3
time step continuity errors : sum local = 1.3610556e-05, global = 2.4475297e-07, cumulative = -0.00018294192
ExecutionTime = 9.24719 s  ClockTime = 9 s

Time = 69s

smoothSolver:  Solving for Ux, Initial residual = 0.001471495, Final residual = 5.1679457e-05, No Iterations 3
smoothSolver:  Solving for Uy, Initial residual = 0.011398038, Final residual = 0.00040226492, No Iterations 3
smoothSolver:  Solving for Uz, Initial residual = 0.0018607387, Final residual = 6.6083428e-05, No Iterations 3
GAMG:  Solving for p, Initial residual = 0.012596119, Final residual = 0.00010097865, No Iterations 3
time step continuity errors : sum local = 1.2973862e-05, global = 2.1608816e-07, cumulative = -0.00018272584
ExecutionTime = 9.369127 s  ClockTime = 9 s

Time = 70s

smoothSolver:  Solving for Ux, Initial residual = 0.0014611843, Final residual = 5.1288796e-05, No Iterations 3
smoothSolver:  Solving for Uy, Initial residual = 0.011200706, Final residual = 0.00039545406, No Iterations 3
smoothSolver:  Solving for Uz, Initial residual = 0.0018391489, Final residual = 6.5339357e-05, No Iterations 3
GAMG:  Solving for p, Initial residual = 0.012451736, Final residual = 9.5922377e-05, No Iterations 3
time step continuity errors : sum local = 1.234538e-05, global = 1.9683511e-07, cumulative = -0.000182529
ExecutionTime = 9.494517 s  ClockTime = 9 s

Time = 71s

smoothSolver:  Solving for Ux, Initial residual = 0.0014517947, Final residual = 5.0931898e-05, No Iterations 3
smoothSolver:  Solving for Uy, Initial residual = 0.01100901, Final residual = 0.00038883438, No Iterations 3
smoothSolver:  Solving for Uz, Initial residual = 0.0018182136, Final residual = 6.4618659e-05, No Iterations 3
GAMG:  Solving for p, Initial residual = 0.012309708, Final residual = 9.305463e-05, No Iterations 3
time step continuity errors : sum local = 1.1997745e-05, global = 1.8925801e-07, cumulative = -0.00018233974
ExecutionTime = 9.61826 s  ClockTime = 9 s

Time = 72s

smoothSolver:  Solving for Ux, Initial residual = 0.0014432703, Final residual = 5.060699e-05, No Iterations 3
smoothSolver:  Solving for Uy, Initial residual = 0.010824529, Final residual = 0.00038255098, No Iterations 3
smoothSolver:  Solving for Uz, Initial residual = 0.0017979069, Final residual = 6.3919623e-05, No Iterations 3
GAMG:  Solving for p, Initial residual = 0.012164335, Final residual = 9.2733978e-05, No Iterations 3
time step continuity errors : sum local = 1.1978385e-05, global = 1.9422398e-07, cumulative = -0.00018214552
ExecutionTime = 9.743939 s  ClockTime = 10 s

Time = 73s

smoothSolver:  Solving for Ux, Initial residual = 0.001435393, Final residual = 5.031195e-05, No Iterations 3
smoothSolver:  Solving for Uy, Initial residual = 0.010647308, Final residual = 0.00037654556, No Iterations 3
smoothSolver:  Solving for Uz, Initial residual = 0.0017781475, Final residual = 6.3239725e-05, No Iterations 3
GAMG:  Solving for p, Initial residual = 0.012015428, Final residual = 9.3639738e-05, No Iterations 3
time step continuity errors : sum local = 1.2117523e-05, global = 2.1065002e-07, cumulative = -0.00018193487
ExecutionTime = 9.86696 s  ClockTime = 10 s

Time = 74s

smoothSolver:  Solving for Ux, Initial residual = 0.0014280168, Final residual = 5.0038001e-05, No Iterations 3
smoothSolver:  Solving for Uy, Initial residual = 0.010476118, Final residual = 0.00037075222, No Iterations 3
smoothSolver:  Solving for Uz, Initial residual = 0.0017588891, Final residual = 6.2576283e-05, No Iterations 3
GAMG:  Solving for p, Initial residual = 0.011884744, Final residual = 9.4213953e-05, No Iterations 3
time step continuity errors : sum local = 1.2213845e-05, global = 2.2659506e-07, cumulative = -0.00018170827
ExecutionTime = 9.99131 s  ClockTime = 10 s

Time = 75s

smoothSolver:  Solving for Ux, Initial residual = 0.0014210947, Final residual = 4.9782513e-05, No Iterations 3
smoothSolver:  Solving for Uy, Initial residual = 0.010309839, Final residual = 0.00036512028, No Iterations 3
smoothSolver:  Solving for Uz, Initial residual = 0.0017401039, Final residual = 6.1927682e-05, No Iterations 3
GAMG:  Solving for p, Initial residual = 0.01176945, Final residual = 9.3739473e-05, No Iterations 3
time step continuity errors : sum local = 1.2173901e-05, global = 2.4374591e-07, cumulative = -0.00018146453
ExecutionTime = 10.116152 s  ClockTime = 10 s

Time = 76s

smoothSolver:  Solving for Ux, Initial residual = 0.001414721, Final residual = 4.954957e-05, No Iterations 3
smoothSolver:  Solving for Uy, Initial residual = 0.010148761, Final residual = 0.00035963129, No Iterations 3
smoothSolver:  Solving for Uz, Initial residual = 0.0017217453, Final residual = 6.1293504e-05, No Iterations 3
GAMG:  Solving for p, Initial residual = 0.011666984, Final residual = 9.2602708e-05, No Iterations 3
time step continuity errors : sum local = 1.2047324e-05, global = 2.4583005e-07, cumulative = -0.0001812187
ExecutionTime = 10.239758 s  ClockTime = 10 s

Time = 77s

smoothSolver:  Solving for Ux, Initial residual = 0.0014090336, Final residual = 4.9343184e-05, No Iterations 3
smoothSolver:  Solving for Uy, Initial residual = 0.0099921555, Final residual = 0.00035428257, No Iterations 3
smoothSolver:  Solving for Uz, Initial residual = 0.0017038171, Final residual = 6.0673978e-05, No Iterations 3
GAMG:  Solving for p, Initial residual = 0.011561568, Final residual = 9.1038573e-05, No Iterations 3
time step continuity errors : sum local = 1.1864562e-05, global = 2.3369261e-07, cumulative = -0.00018098501
ExecutionTime = 10.363741 s  ClockTime = 10 s

Time = 78s

smoothSolver:  Solving for Ux, Initial residual = 0.0014040875, Final residual = 4.9166937e-05, No Iterations 3
smoothSolver:  Solving for Uy, Initial residual = 0.009840756, Final residual = 0.00034907293, No Iterations 3
smoothSolver:  Solving for Uz, Initial residual = 0.0016863167, Final residual = 6.0069399e-05, No Iterations 3
GAMG:  Solving for p, Initial residual = 0.011460155, Final residual = 8.9546569e-05, No Iterations 3
time step continuity errors : sum local = 1.1690707e-05, global = 2.2033895e-07, cumulative = -0.00018076467
ExecutionTime = 10.486863 s  ClockTime = 10 s

Time = 79s

smoothSolver:  Solving for Ux, Initial residual = 0.0013999196, Final residual = 4.902427e-05, No Iterations 3
smoothSolver:  Solving for Uy, Initial residual = 0.0096943193, Final residual = 0.0003440023, No Iterations 3
smoothSolver:  Solving for Uz, Initial residual = 0.0016692234, Final residual = 5.9479341e-05, No Iterations 3
GAMG:  Solving for p, Initial residual = 0.011355715, Final residual = 8.8379413e-05, No Iterations 3
time step continuity errors : sum local = 1.1558643e-05, global = 2.0595221e-07, cumulative = -0.00018055871
ExecutionTime = 10.60957 s  ClockTime = 10 s

Time = 80s

smoothSolver:  Solving for Ux, Initial residual = 0.0013964494, Final residual = 4.891201e-05, No Iterations 3
smoothSolver:  Solving for Uy, Initial residual = 0.0095529746, Final residual = 0.00033905187, No Iterations 3
smoothSolver:  Solving for Uz, Initial residual = 0.0016525355, Final residual = 5.8903245e-05, No Iterations 3
GAMG:  Solving for p, Initial residual = 0.01124576, Final residual = 8.7678404e-05, No Iterations 3
time step continuity errors : sum local = 1.1486996e-05, global = 1.951502e-07, cumulative = -0.00018036356
ExecutionTime = 10.733908 s  ClockTime = 11 s

Time = 81s

smoothSolver:  Solving for Ux, Initial residual = 0.0013934446, Final residual = 4.8821649e-05, No Iterations 3
smoothSolver:  Solving for Uy, Initial residual = 0.009416303, Final residual = 0.00033421126, No Iterations 3
smoothSolver:  Solving for Uz, Initial residual = 0.0016362386, Final residual = 5.8339701e-05, No Iterations 3
GAMG:  Solving for p, Initial residual = 0.011151105, Final residual = 8.7215854e-05, No Iterations 3
time step continuity errors : sum local = 1.1446309e-05, global = 1.9070596e-07, cumulative = -0.00018017286
ExecutionTime = 10.857201 s  ClockTime = 11 s

Time = 82s

smoothSolver:  Solving for Ux, Initial residual = 0.0013908549, Final residual = 4.874891e-05, No Iterations 3
smoothSolver:  Solving for Uy, Initial residual = 0.0092844523, Final residual = 0.00032951373, No Iterations 3
smoothSolver:  Solving for Uz, Initial residual = 0.0016203321, Final residual = 5.7789866e-05, No Iterations 3
GAMG:  Solving for p, Initial residual = 0.011061942, Final residual = 8.6788626e-05, No Iterations 3
time step continuity errors : sum local = 1.1409984e-05, global = 1.9224287e-07, cumulative = -0.00017998062
ExecutionTime = 10.981531 s  ClockTime = 11 s

Time = 83s

smoothSolver:  Solving for Ux, Initial residual = 0.0013885977, Final residual = 4.8691131e-05, No Iterations 3
smoothSolver:  Solving for Uy, Initial residual = 0.0091563656, Final residual = 0.00032490073, No Iterations 3
smoothSolver:  Solving for Uz, Initial residual = 0.0016048205, Final residual = 5.7254134e-05, No Iterations 3
GAMG:  Solving for p, Initial residual = 0.0109696, Final residual = 8.615296e-05, No Iterations 3
time step continuity errors : sum local = 1.134589e-05, global = 1.971223e-07, cumulative = -0.00017978349
ExecutionTime = 11.105287 s  ClockTime = 11 s

Time = 84s

smoothSolver:  Solving for Ux, Initial residual = 0.00138661, Final residual = 4.8642984e-05, No Iterations 3
smoothSolver:  Solving for Uy, Initial residual = 0.0090310183, Final residual = 0.0003203394, No Iterations 3
smoothSolver:  Solving for Uz, Initial residual = 0.001589675, Final residual = 5.6731792e-05, No Iterations 3
GAMG:  Solving for p, Initial residual = 0.010881948, Final residual = 8.5461431e-05, No Iterations 3
time step continuity errors : sum local = 1.1273949e-05, global = 2.0477812e-07, cumulative = -0.00017957872
ExecutionTime = 11.229289 s  ClockTime = 11 s

Time = 85s

smoothSolver:  Solving for Ux, Initial residual = 0.0013848937, Final residual = 4.8601721e-05, No Iterations 3
smoothSolver:  Solving for Uy, Initial residual = 0.0089082272, Final residual = 0.00031585673, No Iterations 3
smoothSolver:  Solving for Uz, Initial residual = 0.0015748659, Final residual = 5.6221535e-05, No Iterations 3
GAMG:  Solving for p, Initial residual = 0.010806302, Final residual = 8.4978352e-05, No Iterations 3
time step continuity errors : sum local = 1.1229243e-05, global = 1.9894533e-07, cumulative = -0.00017937977
ExecutionTime = 11.351902 s  ClockTime = 11 s

Time = 86s

smoothSolver:  Solving for Ux, Initial residual = 0.0013834481, Final residual = 4.8569079e-05, No Iterations 3
smoothSolver:  Solving for Uy, Initial residual = 0.0087893396, Final residual = 0.00031145804, No Iterations 3
smoothSolver:  Solving for Uz, Initial residual = 0.0015604027, Final residual = 5.5723732e-05, No Iterations 3
GAMG:  Solving for p, Initial residual = 0.010736605, Final residual = 8.4513421e-05, No Iterations 3
time step continuity errors : sum local = 1.118658e-05, global = 1.9613567e-07, cumulative = -0.00017918363
ExecutionTime = 11.474762 s  ClockTime = 11 s

Time = 87s

smoothSolver:  Solving for Ux, Initial residual = 0.0013823023, Final residual = 4.8548164e-05, No Iterations 3
smoothSolver:  Solving for Uy, Initial residual = 0.0086743269, Final residual = 0.00030719234, No Iterations 3
smoothSolver:  Solving for Uz, Initial residual = 0.0015462676, Final residual = 5.5238288e-05, No Iterations 3
GAMG:  Solving for p, Initial residual = 0.0106686, Final residual = 8.4250386e-05, No Iterations 3
time step continuity errors : sum local = 1.1170291e-05, global = 1.93079e-07, cumulative = -0.00017899056
ExecutionTime = 11.597771 s  ClockTime = 11 s

Time = 88s

smoothSolver:  Solving for Ux, Initial residual = 0.0013814491, Final residual = 4.8537702e-05, No Iterations 3
smoothSolver:  Solving for Uy, Initial residual = 0.0085637301, Final residual = 0.00030309771, No Iterations 3
smoothSolver:  Solving for Uz, Initial residual = 0.0015324482, Final residual = 5.4763742e-05, No Iterations 3
GAMG:  Solving for p, Initial residual = 0.01060384, Final residual = 8.3853704e-05, No Iterations 3
time step continuity errors : sum local = 1.1136049e-05, global = 1.9475948e-07, cumulative = -0.0001787958
ExecutionTime = 11.721957 s  ClockTime = 12 s

Time = 89s

smoothSolver:  Solving for Ux, Initial residual = 0.0013808332, Final residual = 4.853582e-05, No Iterations 3
smoothSolver:  Solving for Uy, Initial residual = 0.0084562106, Final residual = 0.00029913067, No Iterations 3
smoothSolver:  Solving for Uz, Initial residual = 0.001518935, Final residual = 5.4300119e-05, No Iterations 3
GAMG:  Solving for p, Initial residual = 0.010539348, Final residual = 8.3739122e-05, No Iterations 3
time step continuity errors : sum local = 1.113916e-05, global = 1.886964e-07, cumulative = -0.0001786071
ExecutionTime = 11.844511 s  ClockTime = 12 s

Time = 90s

smoothSolver:  Solving for Ux, Initial residual = 0.0013803816, Final residual = 4.8538912e-05, No Iterations 3
smoothSolver:  Solving for Uy, Initial residual = 0.0083500937, Final residual = 0.00029521025, No Iterations 3
smoothSolver:  Solving for Uz, Initial residual = 0.0015057208, Final residual = 5.3847217e-05, No Iterations 3
GAMG:  Solving for p, Initial residual = 0.010472256, Final residual = 8.342347e-05, No Iterations 3
time step continuity errors : sum local = 1.1115348e-05, global = 1.8257708e-07, cumulative = -0.00017842452
ExecutionTime = 11.969224 s  ClockTime = 12 s

Time = 91s

smoothSolver:  Solving for Ux, Initial residual = 0.0013800886, Final residual = 4.854508e-05, No Iterations 3
smoothSolver:  Solving for Uy, Initial residual = 0.0082446635, Final residual = 0.00029133552, No Iterations 3
smoothSolver:  Solving for Uz, Initial residual = 0.001492779, Final residual = 5.3403791e-05, No Iterations 3
GAMG:  Solving for p, Initial residual = 0.010403665, Final residual = 8.2950414e-05, No Iterations 3
time step continuity errors : sum local = 1.1070285e-05, global = 1.8417945e-07, cumulative = -0.00017824034
ExecutionTime = 12.092565 s  ClockTime = 12 s

Time = 92s

smoothSolver:  Solving for Ux, Initial residual = 0.0013799105, Final residual = 4.8555104e-05, No Iterations 3
smoothSolver:  Solving for Uy, Initial residual = 0.0081399359, Final residual = 0.00028753459, No Iterations 3
smoothSolver:  Solving for Uz, Initial residual = 0.001480103, Final residual = 5.2969404e-05, No Iterations 3
GAMG:  Solving for p, Initial residual = 0.010336295, Final residual = 8.2448644e-05, No Iterations 3
time step continuity errors : sum local = 1.1021141e-05, global = 1.8685289e-07, cumulative = -0.00017805349
ExecutionTime = 12.215677 s  ClockTime = 12 s

Time = 93s

smoothSolver:  Solving for Ux, Initial residual = 0.0013798482, Final residual = 4.8568781e-05, No Iterations 3
smoothSolver:  Solving for Uy, Initial residual = 0.0080374462, Final residual = 0.00028383484, No Iterations 3
smoothSolver:  Solving for Uz, Initial residual = 0.0014676976, Final residual = 5.2544349e-05, No Iterations 3
GAMG:  Solving for p, Initial residual = 0.010273134, Final residual = 8.2052949e-05, No Iterations 3
time step continuity errors : sum local = 1.09859e-05, global = 1.9006186e-07, cumulative = -0.00017786343
ExecutionTime = 12.339024 s  ClockTime = 12 s

Time = 94s

smoothSolver:  Solving for Ux, Initial residual = 0.001379948, Final residual = 4.858876e-05, No Iterations 3
smoothSolver:  Solving for Uy, Initial residual = 0.0079388684, Final residual = 0.00028029372, No Iterations 3
smoothSolver:  Solving for Uz, Initial residual = 0.001455551, Final residual = 5.2128758e-05, No Iterations 3
GAMG:  Solving for p, Initial residual = 0.01021332, Final residual = 8.1755707e-05, No Iterations 3
time step continuity errors : sum local = 1.0963572e-05, global = 1.9247504e-07, cumulative = -0.00017767095
ExecutionTime = 12.463104 s  ClockTime = 12 s

Time = 95s

smoothSolver:  Solving for Ux, Initial residual = 0.0013801931, Final residual = 4.8613827e-05, No Iterations 3
smoothSolver:  Solving for Uy, Initial residual = 0.0078448335, Final residual = 0.00027694486, No Iterations 3
smoothSolver:  Solving for Uz, Initial residual = 0.0014436643, Final residual = 5.1721874e-05, No Iterations 3
GAMG:  Solving for p, Initial residual = 0.010164603, Final residual = 8.164716e-05, No Iterations 3
time step continuity errors : sum local = 1.0966275e-05, global = 1.9349589e-07, cumulative = -0.00017747746
ExecutionTime = 12.587758 s  ClockTime = 12 s

Time = 96s

smoothSolver:  Solving for Ux, Initial residual = 0.0013805561, Final residual = 4.8644666e-05, No Iterations 3
smoothSolver:  Solving for Uy, Initial residual = 0.0077551044, Final residual = 0.0002737765, No Iterations 3
smoothSolver:  Solving for Uz, Initial residual = 0.0014320402, Final residual = 5.1324844e-05, No Iterations 3
GAMG:  Solving for p, Initial residual = 0.010124785, Final residual = 8.1709868e-05, No Iterations 3
time step continuity errors : sum local = 1.0991866e-05, global = 1.9291825e-07, cumulative = -0.00017728454
ExecutionTime = 12.710668 s  ClockTime = 13 s

Time = 97s

smoothSolver:  Solving for Ux, Initial residual = 0.0013810624, Final residual = 4.8680504e-05, No Iterations 3
smoothSolver:  Solving for Uy, Initial residual = 0.0076684174, Final residual = 0.00027075014, No Iterations 3
smoothSolver:  Solving for Uz, Initial residual = 0.0014206643, Final residual = 5.0937699e-05, No Iterations 3
GAMG:  Solving for p, Initial residual = 0.010082771, Final residual = 8.174225e-05, No Iterations 3
time step continuity errors : sum local = 1.1013281e-05, global = 1.9047885e-07, cumulative = -0.00017709406
ExecutionTime = 12.832206 s  ClockTime = 13 s

Time = 98s

smoothSolver:  Solving for Ux, Initial residual = 0.0013816932, Final residual = 4.8719578e-05, No Iterations 3
smoothSolver:  Solving for Uy, Initial residual = 0.0075829203, Final residual = 0.00026780846, No Iterations 3
smoothSolver:  Solving for Uz, Initial residual = 0.0014095256, Final residual = 5.056048e-05, No Iterations 3
GAMG:  Solving for p, Initial residual = 0.010034675, Final residual = 8.1618605e-05, No Iterations 3
time step continuity errors : sum local = 1.1013532e-05, global = 1.8754359e-07, cumulative = -0.00017690652
ExecutionTime = 12.955544 s  ClockTime = 13 s

Time = 99s

smoothSolver:  Solving for Ux, Initial residual = 0.0013824408, Final residual = 4.8761649e-05, No Iterations 3
smoothSolver:  Solving for Uy, Initial residual = 0.0074991183, Final residual = 0.00026495969, No Iterations 3
smoothSolver:  Solving for Uz, Initial residual = 0.0013986228, Final residual = 5.0192671e-05, No Iterations 3
GAMG:  Solving for p, Initial residual = 0.0099834264, Final residual = 8.1483158e-05, No Iterations 3
time step continuity errors : sum local = 1.1012115e-05, global = 1.8467069e-07, cumulative = -0.00017672185
ExecutionTime = 13.079843 s  ClockTime = 13 s

Time = 100s

smoothSolver:  Solving for Ux, Initial residual = 0.0013832409, Final residual = 4.880516e-05, No Iterations 3
smoothSolver:  Solving for Uy, Initial residual = 0.0074181842, Final residual = 0.00026221316, No Iterations 3
smoothSolver:  Solving for Uz, Initial residual = 0.0013879517, Final residual = 4.9832961e-05, No Iterations 3
GAMG:  Solving for p, Initial residual = 0.0099321234, Final residual = 8.1341976e-05, No Iterations 3
time step continuity errors : sum local = 1.1009729e-05, global = 1.8267062e-07, cumulative = -0.00017653917
ExecutionTime = 13.202873 s  ClockTime = 13 s

Time = 101s

smoothSolver:  Solving for Ux, Initial residual = 0.0013840969, Final residual = 4.8850861e-05, No Iterations 3
smoothSolver:  Solving for Uy, Initial residual = 0.0073396727, Final residual = 0.00025955765, No Iterations 3
smoothSolver:  Solving for Uz, Initial residual = 0.0013775009, Final residual = 4.9480963e-05, No Iterations 3
GAMG:  Solving for p, Initial residual = 0.0098767056, Final residual = 8.1153067e-05, No Iterations 3
time step continuity errors : sum local = 1.1000776e-05, global = 1.809983e-07, cumulative = -0.00017635818
ExecutionTime = 13.325943 s  ClockTime = 13 s

Time = 102s

smoothSolver:  Solving for Ux, Initial residual = 0.001384985, Final residual = 4.889837e-05, No Iterations 3
smoothSolver:  Solving for Uy, Initial residual = 0.0072637785, Final residual = 0.00025697026, No Iterations 3
smoothSolver:  Solving for Uz, Initial residual = 0.0013672689, Final residual = 4.9135633e-05, No Iterations 3
GAMG:  Solving for p, Initial residual = 0.0098245753, Final residual = 8.1012963e-05, No Iterations 3
time step continuity errors : sum local = 1.0998367e-05, global = 1.8015064e-07, cumulative = -0.00017617803
ExecutionTime = 13.45027 s  ClockTime = 13 s

Time = 103s

smoothSolver:  Solving for Ux, Initial residual = 0.0013859244, Final residual = 4.8948044e-05, No Iterations 3
smoothSolver:  Solving for Uy, Initial residual = 0.0071897654, Final residual = 0.00025441652, No Iterations 3
smoothSolver:  Solving for Uz, Initial residual = 0.0013572444, Final residual = 4.8797435e-05, No Iterations 3
GAMG:  Solving for p, Initial residual = 0.0097801422, Final residual = 8.1061585e-05, No Iterations 3
time step continuity errors : sum local = 1.1021592e-05, global = 1.8003261e-07, cumulative = -0.00017599799
ExecutionTime = 13.573481 s  ClockTime = 13 s

Time = 104s

smoothSolver:  Solving for Ux, Initial residual = 0.0013869759, Final residual = 4.9000439e-05, No Iterations 3
smoothSolver:  Solving for Uy, Initial residual = 0.0071178978, Final residual = 0.00025191564, No Iterations 3
smoothSolver:  Solving for Uz, Initial residual = 0.0013474143, Final residual = 4.8466729e-05, No Iterations 3
GAMG:  Solving for p, Initial residual = 0.009748528, Final residual = 8.1130966e-05, No Iterations 3
time step continuity errors : sum local = 1.1047587e-05, global = 1.8002935e-07, cumulative = -0.00017581796
ExecutionTime = 13.697442 s  ClockTime = 14 s

Time = 105s

smoothSolver:  Solving for Ux, Initial residual = 0.0013881056, Final residual = 4.9056143e-05, No Iterations 3
smoothSolver:  Solving for Uy, Initial residual = 0.00704827, Final residual = 0.00024946591, No Iterations 3
smoothSolver:  Solving for Uz, Initial residual = 0.0013378034, Final residual = 4.8143856e-05, No Iterations 3
GAMG:  Solving for p, Initial residual = 0.0097170048, Final residual = 8.1128203e-05, No Iterations 3
time step continuity errors : sum local = 1.1063618e-05, global = 1.7964103e-07, cumulative = -0.00017563832
ExecutionTime = 13.82151 s  ClockTime = 14 s

Time = 106s

smoothSolver:  Solving for Ux, Initial residual = 0.001389308, Final residual = 4.9114342e-05, No Iterations 3
smoothSolver:  Solving for Uy, Initial residual = 0.006979063, Final residual = 0.00024700034, No Iterations 3
smoothSolver:  Solving for Uz, Initial residual = 0.0013283991, Final residual = 4.7828358e-05, No Iterations 3
GAMG:  Solving for p, Initial residual = 0.0096811124, Final residual = 8.1023953e-05, No Iterations 3
time step continuity errors : sum local = 1.1065555e-05, global = 1.7864579e-07, cumulative = -0.00017545968
ExecutionTime = 13.946132 s  ClockTime = 14 s

Time = 107s

smoothSolver:  Solving for Ux, Initial residual = 0.0013905224, Final residual = 4.9171261e-05, No Iterations 3
smoothSolver:  Solving for Uy, Initial residual = 0.0069089151, Final residual = 0.00024448887, No Iterations 3
smoothSolver:  Solving for Uz, Initial residual = 0.0013191795, Final residual = 4.7518969e-05, No Iterations 3
GAMG:  Solving for p, Initial residual = 0.0096480098, Final residual = 8.0795462e-05, No Iterations 3
time step continuity errors : sum local = 1.1050286e-05, global = 1.7895504e-07, cumulative = -0.00017528072
ExecutionTime = 14.07106 s  ClockTime = 14 s

Time = 108s

smoothSolver:  Solving for Ux, Initial residual = 0.0013916947, Final residual = 4.9226293e-05, No Iterations 3
smoothSolver:  Solving for Uy, Initial residual = 0.0068376009, Final residual = 0.00024192933, No Iterations 3
smoothSolver:  Solving for Uz, Initial residual = 0.0013101102, Final residual = 4.7215398e-05, No Iterations 3
GAMG:  Solving for p, Initial residual = 0.0096228027, Final residual = 8.0619667e-05, No Iterations 3
time step continuity errors : sum local = 1.1042033e-05, global = 1.7856711e-07, cumulative = -0.00017510216
ExecutionTime = 14.194624 s  ClockTime = 14 s

Time = 109s

smoothSolver:  Solving for Ux, Initial residual = 0.0013928132, Final residual = 4.9279258e-05, No Iterations 3
smoothSolver:  Solving for Uy, Initial residual = 0.0067663289, Final residual = 0.00023934602, No Iterations 3
smoothSolver:  Solving for Uz, Initial residual = 0.0013011844, Final residual = 4.6917079e-05, No Iterations 3
GAMG:  Solving for p, Initial residual = 0.0095962557, Final residual = 8.0490629e-05, No Iterations 3
time step continuity errors : sum local = 1.1040025e-05, global = 1.7838357e-07, cumulative = -0.00017492377
ExecutionTime = 14.318035 s  ClockTime = 14 s

Time = 110s

smoothSolver:  Solving for Ux, Initial residual = 0.0013939331, Final residual = 4.9330952e-05, No Iterations 3
smoothSolver:  Solving for Uy, Initial residual = 0.006695744, Final residual = 0.00023677126, No Iterations 3
smoothSolver:  Solving for Uz, Initial residual = 0.0012924106, Final residual = 4.6624117e-05, No Iterations 3
GAMG:  Solving for p, Initial residual = 0.0095706487, Final residual = 8.0364913e-05, No Iterations 3
time step continuity errors : sum local = 1.1038224e-05, global = 1.7832516e-07, cumulative = -0.00017474545
ExecutionTime = 14.440616 s  ClockTime = 14 s

Time = 111s

smoothSolver:  Solving for Ux, Initial residual = 0.0013950503, Final residual = 4.9381381e-05, No Iterations 3
smoothSolver:  Solving for Uy, Initial residual = 0.006626875, Final residual = 0.00023424473, No Iterations 3
smoothSolver:  Solving for Uz, Initial residual = 0.0012837921, Final residual = 4.6335829e-05, No Iterations 3
GAMG:  Solving for p, Initial residual = 0.0095402406, Final residual = 8.049075e-05, No Iterations 3
time step continuity errors : sum local = 1.1070837e-05, global = 1.7862089e-07, cumulative = -0.00017456683
ExecutionTime = 14.565349 s  ClockTime = 14 s

Time = 112s

smoothSolver:  Solving for Ux, Initial residual = 0.0013962102, Final residual = 4.9429452e-05, No Iterations 3
smoothSolver:  Solving for Uy, Initial residual = 0.0065608254, Final residual = 0.00023179896, No Iterations 3
smoothSolver:  Solving for Uz, Initial residual = 0.0012753434, Final residual = 4.6052241e-05, No Iterations 3
GAMG:  Solving for p, Initial residual = 0.0095147215, Final residual = 8.0656556e-05, No Iterations 3
time step continuity errors : sum local = 1.1108935e-05, global = 1.7886295e-07, cumulative = -0.00017438796
ExecutionTime = 14.68742 s  ClockTime = 15 s

Time = 113s

smoothSolver:  Solving for Ux, Initial residual = 0.0013974325, Final residual = 4.9477653e-05, No Iterations 3
smoothSolver:  Solving for Uy, Initial residual = 0.0064979061, Final residual = 0.00022943653, No Iterations 3
smoothSolver:  Solving for Uz, Initial residual = 0.0012670668, Final residual = 4.5773766e-05, No Iterations 3
GAMG:  Solving for p, Initial residual = 0.0094871886, Final residual = 8.0684954e-05, No Iterations 3
time step continuity errors : sum local = 1.1128129e-05, global = 1.7868754e-07, cumulative = -0.00017420927
ExecutionTime = 14.810988 s  ClockTime = 15 s

Time = 114s

smoothSolver:  Solving for Ux, Initial residual = 0.0013987256, Final residual = 4.9524537e-05, No Iterations 3
smoothSolver:  Solving for Uy, Initial residual = 0.0064370072, Final residual = 0.00022715327, No Iterations 3
smoothSolver:  Solving for Uz, Initial residual = 0.0012589618, Final residual = 4.5500707e-05, No Iterations 3
GAMG:  Solving for p, Initial residual = 0.009446697, Final residual = 8.0497037e-05, No Iterations 3
time step continuity errors : sum local = 1.1117253e-05, global = 1.778837e-07, cumulative = -0.00017403139
ExecutionTime = 14.934265 s  ClockTime = 15 s

Time = 115s

smoothSolver:  Solving for Ux, Initial residual = 0.0014000433, Final residual = 4.9570182e-05, No Iterations 3
smoothSolver:  Solving for Uy, Initial residual = 0.0063776075, Final residual = 0.00022492708, No Iterations 3
smoothSolver:  Solving for Uz, Initial residual = 0.001251017, Final residual = 4.5232355e-05, No Iterations 3
GAMG:  Solving for p, Initial residual = 0.0094053976, Final residual = 8.0260675e-05, No Iterations 3
time step continuity errors : sum local = 1.1099597e-05, global = 1.7646764e-07, cumulative = -0.00017385492
ExecutionTime = 15.059604 s  ClockTime = 15 s

Time = 116s

smoothSolver:  Solving for Ux, Initial residual = 0.0014013242, Final residual = 4.9614807e-05, No Iterations 3
smoothSolver:  Solving for Uy, Initial residual = 0.006319018, Final residual = 0.00022271596, No Iterations 3
smoothSolver:  Solving for Uz, Initial residual = 0.0012432203, Final residual = 4.4968553e-05, No Iterations 3
GAMG:  Solving for p, Initial residual = 0.0093609232, Final residual = 7.9852377e-05, No Iterations 3
time step continuity errors : sum local = 1.1057997e-05, global = 1.7482575e-07, cumulative = -0.0001736801
ExecutionTime = 15.182297 s  ClockTime = 15 s

Time = 117s

smoothSolver:  Solving for Ux, Initial residual = 0.0014025322, Final residual = 4.9657009e-05, No Iterations 3
smoothSolver:  Solving for Uy, Initial residual = 0.0062603719, Final residual = 0.00022051204, No Iterations 3
smoothSolver:  Solving for Uz, Initial residual = 0.0012355623, Final residual = 4.4709286e-05, No Iterations 3
GAMG:  Solving for p, Initial residual = 0.0093164972, Final residual = 7.9549008e-05, No Iterations 3
time step continuity errors : sum local = 1.1030688e-05, global = 1.7362478e-07, cumulative = -0.00017350647
ExecutionTime = 15.306145 s  ClockTime = 15 s

Time = 118s

smoothSolver:  Solving for Ux, Initial residual = 0.0014036735, Final residual = 4.9693359e-05, No Iterations 3
smoothSolver:  Solving for Uy, Initial residual = 0.0062015524, Final residual = 0.00021829708, No Iterations 3
smoothSolver:  Solving for Uz, Initial residual = 0.0012280182, Final residual = 4.4451957e-05, No Iterations 3
GAMG:  Solving for p, Initial residual = 0.0092898692, Final residual = 7.9496704e-05, No Iterations 3
time step continuity errors : sum local = 1.1038059e-05, global = 1.7351833e-07, cumulative = -0.00017333295
ExecutionTime = 15.429762 s  ClockTime = 15 s

Time = 119s

smoothSolver:  Solving for Ux, Initial residual = 0.0014047682, Final residual = 4.9725312e-05, No Iterations 3
smoothSolver:  Solving for Uy, Initial residual = 0.0061427618, Final residual = 0.00021608542, No Iterations 3
smoothSolver:  Solving for Uz, Initial residual = 0.0012205922, Final residual = 4.4197836e-05, No Iterations 3
GAMG:  Solving for p, Initial residual = 0.0092710647, Final residual = 7.9489696e-05, No Iterations 3
time step continuity errors : sum local = 1.1051759e-05, global = 1.7408925e-07, cumulative = -0.00017315887
ExecutionTime = 15.553938 s  ClockTime = 15 s

Time = 120s

smoothSolver:  Solving for Ux, Initial residual = 0.0014058289, Final residual = 4.9756883e-05, No Iterations 3
smoothSolver:  Solving for Uy, Initial residual = 0.0060848679, Final residual = 0.00021389649, No Iterations 3
smoothSolver:  Solving for Uz, Initial residual = 0.0012132778, Final residual = 4.394796e-05, No Iterations 3
GAMG:  Solving for p, Initial residual = 0.0092475209, Final residual = 7.9490309e-05, No Iterations 3
time step continuity errors : sum local = 1.1066543e-05, global = 1.7506943e-07, cumulative = -0.0001729838
ExecutionTime = 15.676537 s  ClockTime = 16 s

Time = 121s

smoothSolver:  Solving for Ux, Initial residual = 0.0014068645, Final residual = 4.9786956e-05, No Iterations 3
smoothSolver:  Solving for Uy, Initial residual = 0.0060271751, Final residual = 0.00021172564, No Iterations 3
smoothSolver:  Solving for Uz, Initial residual = 0.0012060672, Final residual = 4.3701117e-05, No Iterations 3
GAMG:  Solving for p, Initial residual = 0.0092071483, Final residual = 7.9336077e-05, No Iterations 3
time step continuity errors : sum local = 1.1059653e-05, global = 1.7600866e-07, cumulative = -0.00017280779
ExecutionTime = 15.801137 s  ClockTime = 16 s

Time = 122s

smoothSolver:  Solving for Ux, Initial residual = 0.0014078595, Final residual = 4.9816964e-05, No Iterations 3
smoothSolver:  Solving for Uy, Initial residual = 0.0059698934, Final residual = 0.00020957618, No Iterations 3
smoothSolver:  Solving for Uz, Initial residual = 0.0011989503, Final residual = 4.345765e-05, No Iterations 3
GAMG:  Solving for p, Initial residual = 0.0091684614, Final residual = 7.8870493e-05, No Iterations 3
time step continuity errors : sum local = 1.1009129e-05, global = 1.7630565e-07, cumulative = -0.00017263148
ExecutionTime = 15.925217 s  ClockTime = 16 s

Time = 123s

smoothSolver:  Solving for Ux, Initial residual = 0.0014088024, Final residual = 4.9845975e-05, No Iterations 3
smoothSolver:  Solving for Uy, Initial residual = 0.005912281, Final residual = 0.000207434, No Iterations 3
smoothSolver:  Solving for Uz, Initial residual = 0.0011919303, Final residual = 4.3216863e-05, No Iterations 3
GAMG:  Solving for p, Initial residual = 0.0091334391, Final residual = 7.8029163e-05, No Iterations 3
time step continuity errors : sum local = 1.090579e-05, global = 1.755145e-07, cumulative = -0.00017245597
ExecutionTime = 16.050183 s  ClockTime = 16 s

Time = 124s

smoothSolver:  Solving for Ux, Initial residual = 0.0014096747, Final residual = 4.9873751e-05, No Iterations 3
smoothSolver:  Solving for Uy, Initial residual = 0.0058541456, Final residual = 0.00020529786, No Iterations 3
smoothSolver:  Solving for Uz, Initial residual = 0.001185012, Final residual = 4.2978882e-05, No Iterations 3
GAMG:  Solving for p, Initial residual = 0.0091087196, Final residual = 7.7221292e-05, No Iterations 3
time step continuity errors : sum local = 1.0806743e-05, global = 1.7428313e-07, cumulative = -0.00017228168
ExecutionTime = 16.174133 s  ClockTime = 16 s

Time = 125s

smoothSolver:  Solving for Ux, Initial residual = 0.0014105155, Final residual = 4.990455e-05, No Iterations 3
smoothSolver:  Solving for Uy, Initial residual = 0.0057969362, Final residual = 0.00020319957, No Iterations 3
smoothSolver:  Solving for Uz, Initial residual = 0.0011782116, Final residual = 4.274516e-05, No Iterations 3
GAMG:  Solving for p, Initial residual = 0.0090948977, Final residual = 7.6655253e-05, No Iterations 3
time step continuity errors : sum local = 1.0741451e-05, global = 1.7278789e-07, cumulative = -0.0001721089
ExecutionTime = 16.299339 s  ClockTime = 16 s

Time = 126s

smoothSolver:  Solving for Ux, Initial residual = 0.0014113873, Final residual = 4.9938792e-05, No Iterations 3
smoothSolver:  Solving for Uy, Initial residual = 0.005742362, Final residual = 0.00020117338, No Iterations 3
smoothSolver:  Solving for Uz, Initial residual = 0.0011715286, Final residual = 4.2515341e-05, No Iterations 3
GAMG:  Solving for p, Initial residual = 0.0090830574, Final residual = 7.6504774e-05, No Iterations 3
time step continuity errors : sum local = 1.0734494e-05, global = 1.7161194e-07, cumulative = -0.00017193728
ExecutionTime = 16.4228 s  ClockTime = 16 s

Time = 127s

smoothSolver:  Solving for Ux, Initial residual = 0.0014123708, Final residual = 4.9979293e-05, No Iterations 3
smoothSolver:  Solving for Uy, Initial residual = 0.0056900574, Final residual = 0.00019924269, No Iterations 3
smoothSolver:  Solving for Uz, Initial residual = 0.0011649575, Final residual = 4.2290481e-05, No Iterations 3
GAMG:  Solving for p, Initial residual = 0.0090703444, Final residual = 7.6726226e-05, No Iterations 3
time step continuity errors : sum local = 1.0779953e-05, global = 1.7088605e-07, cumulative = -0.0001717664
ExecutionTime = 16.547158 s  ClockTime = 16 s

Time = 128s

smoothSolver:  Solving for Ux, Initial residual = 0.0014134245, Final residual = 5.0028372e-05, No Iterations 3
smoothSolver:  Solving for Uy, Initial residual = 0.0056394198, Final residual = 0.0001973766, No Iterations 3
smoothSolver:  Solving for Uz, Initial residual = 0.0011585006, Final residual = 4.2070774e-05, No Iterations 3
GAMG:  Solving for p, Initial residual = 0.0090562534, Final residual = 7.7102324e-05, No Iterations 3
time step continuity errors : sum local = 1.0847286e-05, global = 1.7043797e-07, cumulative = -0.00017159596
ExecutionTime = 16.672362 s  ClockTime = 17 s

Time = 129s

smoothSolver:  Solving for Ux, Initial residual = 0.0014144544, Final residual = 5.0080943e-05, No Iterations 3
smoothSolver:  Solving for Uy, Initial residual = 0.0055889187, Final residual = 0.00019552601, No Iterations 3
smoothSolver:  Solving for Uz, Initial residual = 0.0011521324, Final residual = 4.1855622e-05, No Iterations 3
GAMG:  Solving for p, Initial residual = 0.0090404866, Final residual = 7.7385324e-05, No Iterations 3
time step continuity errors : sum local = 1.0901551e-05, global = 1.7078649e-07, cumulative = -0.00017142517
ExecutionTime = 16.795063 s  ClockTime = 17 s

Time = 130s

smoothSolver:  Solving for Ux, Initial residual = 0.0014153395, Final residual = 5.0129345e-05, No Iterations 3
smoothSolver:  Solving for Uy, Initial residual = 0.0055374911, Final residual = 0.00019366212, No Iterations 3
smoothSolver:  Solving for Uz, Initial residual = 0.001145828, Final residual = 4.1642061e-05, No Iterations 3
[...]
GAMG:  Solving for p, Initial residual = 1.0667011e-05, Final residual = 9.3532135e-08, No Iterations 3
time step continuity errors : sum local = 1.6059407e-08, global = -6.3694158e-10, cumulative = -0.00010751998
ExecutionTime = 268.91008 s  ClockTime = 272 s

Time = 2165s

smoothSolver:  Solving for Ux, Initial residual = 1.232385e-06, Final residual = 4.8488499e-08, No Iterations 3
smoothSolver:  Solving for Uy, Initial residual = 7.0601571e-06, Final residual = 2.8098259e-07, No Iterations 3
smoothSolver:  Solving for Uz, Initial residual = 3.8403421e-07, Final residual = 1.4546191e-08, No Iterations 3
GAMG:  Solving for p, Initial residual = 1.0644199e-05, Final residual = 9.3158032e-08, No Iterations 3
time step continuity errors : sum local = 1.5995175e-08, global = -6.1306461e-10, cumulative = -0.00010752059
ExecutionTime = 269.03434 s  ClockTime = 272 s

Time = 2166s

smoothSolver:  Solving for Ux, Initial residual = 1.2296858e-06, Final residual = 4.8380592e-08, No Iterations 3
smoothSolver:  Solving for Uy, Initial residual = 7.0529383e-06, Final residual = 2.8043227e-07, No Iterations 3
smoothSolver:  Solving for Uz, Initial residual = 3.8262583e-07, Final residual = 1.4482935e-08, No Iterations 3
GAMG:  Solving for p, Initial residual = 1.0620014e-05, Final residual = 9.2713858e-08, No Iterations 3
time step continuity errors : sum local = 1.5918912e-08, global = -5.7869332e-10, cumulative = -0.00010752117
ExecutionTime = 269.15823 s  ClockTime = 272 s

Time = 2167s

smoothSolver:  Solving for Ux, Initial residual = 1.2270288e-06, Final residual = 4.8268358e-08, No Iterations 3
smoothSolver:  Solving for Uy, Initial residual = 7.0432189e-06, Final residual = 2.7970693e-07, No Iterations 3
smoothSolver:  Solving for Uz, Initial residual = 3.8117884e-07, Final residual = 1.441941e-08, No Iterations 3
GAMG:  Solving for p, Initial residual = 1.059792e-05, Final residual = 9.2222251e-08, No Iterations 3
time step continuity errors : sum local = 1.5834505e-08, global = -5.4054163e-10, cumulative = -0.00010752171
ExecutionTime = 269.2833 s  ClockTime = 272 s

Time = 2168s

smoothSolver:  Solving for Ux, Initial residual = 1.2243528e-06, Final residual = 4.8151498e-08, No Iterations 3
smoothSolver:  Solving for Uy, Initial residual = 7.0313837e-06, Final residual = 2.7875267e-07, No Iterations 3
smoothSolver:  Solving for Uz, Initial residual = 3.797859e-07, Final residual = 1.4354622e-08, No Iterations 3
GAMG:  Solving for p, Initial residual = 1.0577295e-05, Final residual = 9.1668433e-08, No Iterations 3
time step continuity errors : sum local = 1.5739416e-08, global = -5.011991e-10, cumulative = -0.00010752221
ExecutionTime = 269.40711 s  ClockTime = 272 s

Time = 2169s

smoothSolver:  Solving for Ux, Initial residual = 1.2215842e-06, Final residual = 4.8039383e-08, No Iterations 3
smoothSolver:  Solving for Uy, Initial residual = 7.0174062e-06, Final residual = 2.7763622e-07, No Iterations 3
smoothSolver:  Solving for Uz, Initial residual = 3.7843713e-07, Final residual = 1.4293281e-08, No Iterations 3
GAMG:  Solving for p, Initial residual = 1.0557243e-05, Final residual = 9.1033106e-08, No Iterations 3
time step continuity errors : sum local = 1.5630332e-08, global = -4.7498944e-10, cumulative = -0.00010752269
ExecutionTime = 269.53043 s  ClockTime = 273 s

Time = 2170s

smoothSolver:  Solving for Ux, Initial residual = 1.2187391e-06, Final residual = 4.7912119e-08, No Iterations 3
smoothSolver:  Solving for Uy, Initial residual = 7.0013595e-06, Final residual = 2.7638628e-07, No Iterations 3
smoothSolver:  Solving for Uz, Initial residual = 3.7717394e-07, Final residual = 1.4235342e-08, No Iterations 3
GAMG:  Solving for p, Initial residual = 1.053647e-05, Final residual = 9.037083e-08, No Iterations 3
time step continuity errors : sum local = 1.5516621e-08, global = -4.5283854e-10, cumulative = -0.00010752314
ExecutionTime = 269.65535 s  ClockTime = 273 s

Time = 2171s

smoothSolver:  Solving for Ux, Initial residual = 1.2158806e-06, Final residual = 4.7768631e-08, No Iterations 3
smoothSolver:  Solving for Uy, Initial residual = 6.983235e-06, Final residual = 2.7507935e-07, No Iterations 3
smoothSolver:  Solving for Uz, Initial residual = 3.7597399e-07, Final residual = 1.4179454e-08, No Iterations 3
GAMG:  Solving for p, Initial residual = 1.0517373e-05, Final residual = 8.9713967e-08, No Iterations 3
time step continuity errors : sum local = 1.5403838e-08, global = -4.3589698e-10, cumulative = -0.00010752357
ExecutionTime = 269.77954 s  ClockTime = 273 s

Time = 2172s

smoothSolver:  Solving for Ux, Initial residual = 1.2130379e-06, Final residual = 4.7640908e-08, No Iterations 3
smoothSolver:  Solving for Uy, Initial residual = 6.9630792e-06, Final residual = 2.7372838e-07, No Iterations 3
smoothSolver:  Solving for Uz, Initial residual = 3.7478407e-07, Final residual = 1.4122161e-08, No Iterations 3
GAMG:  Solving for p, Initial residual = 1.0497482e-05, Final residual = 8.9321141e-08, No Iterations 3
time step continuity errors : sum local = 1.5336392e-08, global = -4.2786641e-10, cumulative = -0.000107524
ExecutionTime = 269.90308 s  ClockTime = 273 s

Time = 2173s

smoothSolver:  Solving for Ux, Initial residual = 1.2099329e-06, Final residual = 4.7507075e-08, No Iterations 3
smoothSolver:  Solving for Uy, Initial residual = 6.9412085e-06, Final residual = 2.7227246e-07, No Iterations 3
smoothSolver:  Solving for Uz, Initial residual = 3.7354758e-07, Final residual = 1.4060944e-08, No Iterations 3
GAMG:  Solving for p, Initial residual = 1.0473123e-05, Final residual = 8.9042896e-08, No Iterations 3
time step continuity errors : sum local = 1.5288618e-08, global = -4.2017845e-10, cumulative = -0.00010752442
ExecutionTime = 270.02535 s  ClockTime = 273 s

Time = 2174s

smoothSolver:  Solving for Ux, Initial residual = 1.2066419e-06, Final residual = 4.7371308e-08, No Iterations 3
smoothSolver:  Solving for Uy, Initial residual = 6.9174911e-06, Final residual = 2.7074242e-07, No Iterations 3
smoothSolver:  Solving for Uz, Initial residual = 3.7240975e-07, Final residual = 1.4006167e-08, No Iterations 3
GAMG:  Solving for p, Initial residual = 1.044784e-05, Final residual = 8.8838898e-08, No Iterations 3
time step continuity errors : sum local = 1.5253592e-08, global = -4.0713075e-10, cumulative = -0.00010752483
ExecutionTime = 270.148 s  ClockTime = 273 s

Time = 2175s

smoothSolver:  Solving for Ux, Initial residual = 1.2033862e-06, Final residual = 4.7229016e-08, No Iterations 3
smoothSolver:  Solving for Uy, Initial residual = 6.8928658e-06, Final residual = 2.691381e-07, No Iterations 3
smoothSolver:  Solving for Uz, Initial residual = 3.7135877e-07, Final residual = 1.3959892e-08, No Iterations 3
GAMG:  Solving for p, Initial residual = 1.0422513e-05, Final residual = 8.8684664e-08, No Iterations 3
time step continuity errors : sum local = 1.5227112e-08, global = -3.9109392e-10, cumulative = -0.00010752522
ExecutionTime = 270.27026 s  ClockTime = 273 s

Time = 2176s

smoothSolver:  Solving for Ux, Initial residual = 1.200302e-06, Final residual = 4.7065823e-08, No Iterations 3
smoothSolver:  Solving for Uy, Initial residual = 6.8670932e-06, Final residual = 2.6754395e-07, No Iterations 3
smoothSolver:  Solving for Uz, Initial residual = 3.7037462e-07, Final residual = 1.392443e-08, No Iterations 3
GAMG:  Solving for p, Initial residual = 1.0400307e-05, Final residual = 8.8486535e-08, No Iterations 3
time step continuity errors : sum local = 1.5193094e-08, global = -3.6706251e-10, cumulative = -0.00010752559
ExecutionTime = 270.39353 s  ClockTime = 273 s

Time = 2177s

smoothSolver:  Solving for Ux, Initial residual = 1.1974061e-06, Final residual = 4.6898056e-08, No Iterations 3
smoothSolver:  Solving for Uy, Initial residual = 6.8407879e-06, Final residual = 2.6591324e-07, No Iterations 3
smoothSolver:  Solving for Uz, Initial residual = 3.6951441e-07, Final residual = 1.3896575e-08, No Iterations 3
GAMG:  Solving for p, Initial residual = 1.0379632e-05, Final residual = 8.8449179e-08, No Iterations 3
time step continuity errors : sum local = 1.5186681e-08, global = -3.380558e-10, cumulative = -0.00010752593
ExecutionTime = 270.5175 s  ClockTime = 274 s

Time = 2178s

smoothSolver:  Solving for Ux, Initial residual = 1.1942629e-06, Final residual = 4.6722768e-08, No Iterations 3
smoothSolver:  Solving for Uy, Initial residual = 6.8134457e-06, Final residual = 2.6431764e-07, No Iterations 3
smoothSolver:  Solving for Uz, Initial residual = 3.6876111e-07, Final residual = 1.3871931e-08, No Iterations 3
GAMG:  Solving for p, Initial residual = 1.0360595e-05, Final residual = 8.8445903e-08, No Iterations 3
time step continuity errors : sum local = 1.518612e-08, global = -3.0421056e-10, cumulative = -0.00010752623
ExecutionTime = 270.64174 s  ClockTime = 274 s

Time = 2179s

smoothSolver:  Solving for Ux, Initial residual = 1.1910042e-06, Final residual = 4.6540829e-08, No Iterations 3
smoothSolver:  Solving for Uy, Initial residual = 6.7857447e-06, Final residual = 2.6276427e-07, No Iterations 3
smoothSolver:  Solving for Uz, Initial residual = 3.6807213e-07, Final residual = 1.3850082e-08, No Iterations 3
GAMG:  Solving for p, Initial residual = 1.0340513e-05, Final residual = 8.848214e-08, No Iterations 3
time step continuity errors : sum local = 1.5192343e-08, global = -2.6759817e-10, cumulative = -0.0001075265
ExecutionTime = 270.76622 s  ClockTime = 274 s

Time = 2180s

smoothSolver:  Solving for Ux, Initial residual = 1.1876174e-06, Final residual = 4.6367727e-08, No Iterations 3
smoothSolver:  Solving for Uy, Initial residual = 6.7571963e-06, Final residual = 2.6137802e-07, No Iterations 3
smoothSolver:  Solving for Uz, Initial residual = 3.6747362e-07, Final residual = 1.3830602e-08, No Iterations 3
GAMG:  Solving for p, Initial residual = 1.0321066e-05, Final residual = 8.8494032e-08, No Iterations 3
time step continuity errors : sum local = 1.5194386e-08, global = -2.3088848e-10, cumulative = -0.00010752673
ExecutionTime = 270.88968 s  ClockTime = 274 s

Time = 2181s

smoothSolver:  Solving for Ux, Initial residual = 1.1842515e-06, Final residual = 4.6186758e-08, No Iterations 3
smoothSolver:  Solving for Uy, Initial residual = 6.7292619e-06, Final residual = 2.6009804e-07, No Iterations 3
smoothSolver:  Solving for Uz, Initial residual = 3.6693278e-07, Final residual = 1.3815426e-08, No Iterations 3
GAMG:  Solving for p, Initial residual = 1.0301126e-05, Final residual = 8.8428114e-08, No Iterations 3
time step continuity errors : sum local = 1.5183069e-08, global = -1.945325e-10, cumulative = -0.00010752692
ExecutionTime = 271.01349 s  ClockTime = 274 s

Time = 2182s

smoothSolver:  Solving for Ux, Initial residual = 1.1810031e-06, Final residual = 4.6006475e-08, No Iterations 3
smoothSolver:  Solving for Uy, Initial residual = 6.7014574e-06, Final residual = 2.5896077e-07, No Iterations 3
smoothSolver:  Solving for Uz, Initial residual = 3.6643137e-07, Final residual = 1.3802404e-08, No Iterations 3
GAMG:  Solving for p, Initial residual = 1.0282359e-05, Final residual = 8.8269849e-08, No Iterations 3
time step continuity errors : sum local = 1.5155896e-08, global = -1.7139601e-10, cumulative = -0.00010752709
ExecutionTime = 271.13745 s  ClockTime = 274 s

Time = 2183s

smoothSolver:  Solving for Ux, Initial residual = 1.1779124e-06, Final residual = 4.5828712e-08, No Iterations 3
smoothSolver:  Solving for Uy, Initial residual = 6.6757839e-06, Final residual = 2.5799504e-07, No Iterations 3
smoothSolver:  Solving for Uz, Initial residual = 3.6601088e-07, Final residual = 1.3792018e-08, No Iterations 3
GAMG:  Solving for p, Initial residual = 1.0266831e-05, Final residual = 8.7880059e-08, No Iterations 3
time step continuity errors : sum local = 1.508897e-08, global = -1.6293566e-10, cumulative = -0.00010752726
ExecutionTime = 271.26111 s  ClockTime = 274 s

Time = 2184s

smoothSolver:  Solving for Ux, Initial residual = 1.174879e-06, Final residual = 4.5673971e-08, No Iterations 3
smoothSolver:  Solving for Uy, Initial residual = 6.6509937e-06, Final residual = 2.571212e-07, No Iterations 3
smoothSolver:  Solving for Uz, Initial residual = 3.6567222e-07, Final residual = 1.3787052e-08, No Iterations 3
GAMG:  Solving for p, Initial residual = 1.0250914e-05, Final residual = 8.772712e-08, No Iterations 3
time step continuity errors : sum local = 1.5062711e-08, global = -1.5288828e-10, cumulative = -0.00010752741
ExecutionTime = 271.385 s  ClockTime = 274 s

Time = 2185s

smoothSolver:  Solving for Ux, Initial residual = 1.1720809e-06, Final residual = 4.5530769e-08, No Iterations 3
smoothSolver:  Solving for Uy, Initial residual = 6.6285015e-06, Final residual = 2.5643122e-07, No Iterations 3
smoothSolver:  Solving for Uz, Initial residual = 3.6542665e-07, Final residual = 1.3784252e-08, No Iterations 3
GAMG:  Solving for p, Initial residual = 1.0233408e-05, Final residual = 8.7552108e-08, No Iterations 3
time step continuity errors : sum local = 1.5032662e-08, global = -1.5068843e-10, cumulative = -0.00010752756
ExecutionTime = 271.50975 s  ClockTime = 275 s

Time = 2186s

smoothSolver:  Solving for Ux, Initial residual = 1.1691984e-06, Final residual = 4.5412597e-08, No Iterations 3
smoothSolver:  Solving for Uy, Initial residual = 6.607797e-06, Final residual = 2.5593696e-07, No Iterations 3
smoothSolver:  Solving for Uz, Initial residual = 3.6517053e-07, Final residual = 1.378262e-08, No Iterations 3
GAMG:  Solving for p, Initial residual = 1.0214381e-05, Final residual = 8.7407881e-08, No Iterations 3
time step continuity errors : sum local = 1.5007899e-08, global = -1.3952786e-10, cumulative = -0.0001075277
ExecutionTime = 271.63401 s  ClockTime = 275 s

Time = 2187s

smoothSolver:  Solving for Ux, Initial residual = 1.1663849e-06, Final residual = 4.5303703e-08, No Iterations 3
smoothSolver:  Solving for Uy, Initial residual = 6.5901778e-06, Final residual = 2.555988e-07, No Iterations 3
smoothSolver:  Solving for Uz, Initial residual = 3.6495503e-07, Final residual = 1.3784762e-08, No Iterations 3
GAMG:  Solving for p, Initial residual = 1.0194679e-05, Final residual = 8.7289203e-08, No Iterations 3
time step continuity errors : sum local = 1.4987522e-08, global = -1.3209132e-10, cumulative = -0.00010752783
ExecutionTime = 271.75682 s  ClockTime = 275 s

Time = 2188s

smoothSolver:  Solving for Ux, Initial residual = 1.1637123e-06, Final residual = 4.5203339e-08, No Iterations 3
smoothSolver:  Solving for Uy, Initial residual = 6.5734888e-06, Final residual = 2.5546043e-07, No Iterations 3
smoothSolver:  Solving for Uz, Initial residual = 3.6474563e-07, Final residual = 1.3789671e-08, No Iterations 3
GAMG:  Solving for p, Initial residual = 1.0174259e-05, Final residual = 8.7223388e-08, No Iterations 3
time step continuity errors : sum local = 1.4976223e-08, global = -1.1425594e-10, cumulative = -0.00010752795
ExecutionTime = 271.88137 s  ClockTime = 275 s

Time = 2189s

smoothSolver:  Solving for Ux, Initial residual = 1.1613619e-06, Final residual = 4.5108613e-08, No Iterations 3
smoothSolver:  Solving for Uy, Initial residual = 6.5601928e-06, Final residual = 2.5550438e-07, No Iterations 3
smoothSolver:  Solving for Uz, Initial residual = 3.6450018e-07, Final residual = 1.3796703e-08, No Iterations 3
GAMG:  Solving for p, Initial residual = 1.0154395e-05, Final residual = 8.7186525e-08, No Iterations 3
time step continuity errors : sum local = 1.4969894e-08, global = -9.5966541e-11, cumulative = -0.00010752804
ExecutionTime = 272.00634 s  ClockTime = 275 s

Time = 2190s

smoothSolver:  Solving for Ux, Initial residual = 1.1591738e-06, Final residual = 4.5042458e-08, No Iterations 3
smoothSolver:  Solving for Uy, Initial residual = 6.5486802e-06, Final residual = 2.556257e-07, No Iterations 3
smoothSolver:  Solving for Uz, Initial residual = 3.6421516e-07, Final residual = 1.3803213e-08, No Iterations 3
GAMG:  Solving for p, Initial residual = 1.0134239e-05, Final residual = 8.7182624e-08, No Iterations 3
time step continuity errors : sum local = 1.4969224e-08, global = -6.3786066e-11, cumulative = -0.00010752811
ExecutionTime = 272.12999 s  ClockTime = 275 s

Time = 2191s

smoothSolver:  Solving for Ux, Initial residual = 1.1570873e-06, Final residual = 4.4999922e-08, No Iterations 3
smoothSolver:  Solving for Uy, Initial residual = 6.540177e-06, Final residual = 2.5585271e-07, No Iterations 3
smoothSolver:  Solving for Uz, Initial residual = 3.6390434e-07, Final residual = 1.3805923e-08, No Iterations 3
GAMG:  Solving for p, Initial residual = 1.0109226e-05, Final residual = 8.7190758e-08, No Iterations 3
time step continuity errors : sum local = 1.4970621e-08, global = -2.3936706e-11, cumulative = -0.00010752813
ExecutionTime = 272.25333 s  ClockTime = 275 s

Time = 2192s

smoothSolver:  Solving for Ux, Initial residual = 1.1549349e-06, Final residual = 4.4961319e-08, No Iterations 3
smoothSolver:  Solving for Uy, Initial residual = 6.5328896e-06, Final residual = 2.5616889e-07, No Iterations 3
smoothSolver:  Solving for Uz, Initial residual = 3.6351524e-07, Final residual = 1.3804745e-08, No Iterations 3
GAMG:  Solving for p, Initial residual = 1.0081914e-05, Final residual = 8.723208e-08, No Iterations 3
time step continuity errors : sum local = 1.4977717e-08, global = 2.398154e-11, cumulative = -0.00010752811
ExecutionTime = 272.37777 s  ClockTime = 275 s

Time = 2193s

smoothSolver:  Solving for Ux, Initial residual = 1.1527373e-06, Final residual = 4.4922497e-08, No Iterations 3
smoothSolver:  Solving for Uy, Initial residual = 6.5283967e-06, Final residual = 2.5655772e-07, No Iterations 3
smoothSolver:  Solving for Uz, Initial residual = 3.6306954e-07, Final residual = 1.3800637e-08, No Iterations 3
GAMG:  Solving for p, Initial residual = 1.005585e-05, Final residual = 8.7300281e-08, No Iterations 3
time step continuity errors : sum local = 1.4989427e-08, global = 7.9473733e-11, cumulative = -0.00010752803
ExecutionTime = 272.50198 s  ClockTime = 276 s

Time = 2194s

smoothSolver:  Solving for Ux, Initial residual = 1.1508358e-06, Final residual = 4.4880396e-08, No Iterations 3
smoothSolver:  Solving for Uy, Initial residual = 6.5245648e-06, Final residual = 2.5698995e-07, No Iterations 3
smoothSolver:  Solving for Uz, Initial residual = 3.625533e-07, Final residual = 1.3788758e-08, No Iterations 3
GAMG:  Solving for p, Initial residual = 1.0029177e-05, Final residual = 8.7407566e-08, No Iterations 3
time step continuity errors : sum local = 1.5007848e-08, global = 1.4206324e-10, cumulative = -0.00010752788
ExecutionTime = 272.62531 s  ClockTime = 276 s

Time = 2195s

smoothSolver:  Solving for Ux, Initial residual = 1.1489088e-06, Final residual = 4.484471e-08, No Iterations 3
smoothSolver:  Solving for Uy, Initial residual = 6.5224668e-06, Final residual = 2.5739368e-07, No Iterations 3
smoothSolver:  Solving for Uz, Initial residual = 3.6193908e-07, Final residual = 1.3767636e-08, No Iterations 3
GAMG:  Solving for p, Initial residual = 1.0001132e-05, Final residual = 8.7582341e-08, No Iterations 3
time step continuity errors : sum local = 1.5037857e-08, global = 2.0206155e-10, cumulative = -0.00010752768
ExecutionTime = 272.74833 s  ClockTime = 276 s

Time = 2196s

smoothSolver:  Solving for Ux, Initial residual = 1.1470392e-06, Final residual = 4.4814017e-08, No Iterations 3
smoothSolver:  Solving for Uy, Initial residual = 6.5221868e-06, Final residual = 2.5781389e-07, No Iterations 3
smoothSolver:  Solving for Uz, Initial residual = 3.6118521e-07, Final residual = 1.3736289e-08, No Iterations 3
GAMG:  Solving for p, Initial residual = 9.9762498e-06, Final residual = 8.7687768e-08, No Iterations 3
time step continuity errors : sum local = 1.5055958e-08, global = 2.6621931e-10, cumulative = -0.00010752742
ExecutionTime = 272.87199 s  ClockTime = 276 s


SIMPLE solution converged in 2196 iterations

End

Finalising parallel run
