/*---------------------------------------------------------------------------*\
  =========                 |
  \\      /  F ield         | OpenFOAM: The Open Source CFD Toolbox
   \\    /   O peration     | Website:  https://openfoam.org
    \\  /    A nd           | Version:  11
     \\/     M anipulation  |
\*---------------------------------------------------------------------------*/
Build  : 11-e1fc8c682ae6
Exec   : foamRun -solver incompressibleFluid -parallel
Date   : Feb 08 2026
Time   : 01:45:46
Host   : "ip-172-31-18-192"
PID    : 123171
I/O    : uncollated
Case   : /home/ubuntu/cases/bifurcation_angle30_1000_ascii/Re100
nProcs : 16
Slaves : 
15
(
"ip-172-31-18-192.123172"
"ip-172-31-18-192.123173"
"ip-172-31-18-192.123174"
"ip-172-31-18-192.123175"
"ip-172-31-18-192.123176"
"ip-172-31-18-192.123177"
"ip-172-31-18-192.123178"
"ip-172-31-18-192.123179"
"ip-172-31-18-192.123180"
"ip-172-31-18-192.123181"
"ip-172-31-18-192.123182"
"ip-172-31-18-192.123183"
"ip-172-31-18-192.123184"
"ip-172-31-18-192.123185"
"ip-172-31-18-192.123186"
)

Pstream initialised with:
    floatTransfer      : false
    nProcsSimpleSum    : 0
    commsType          : nonBlocking
    polling iterations : 0
sigFpe : Enabling floating point exception trapping (FOAM_SIGFPE).
fileModificationChecking : Monitoring run-time modified files using timeStampMaster (fileModificationSkew 10)
allowSystemOperations : Allowing user-supplied system call operations

// * * * * * * * * * * * * * * * * * * * * * * * * * * * * * * * * * * * * * //
Create time

Create mesh for time = 0

Selecting solver incompressibleFluid
Selecting viscosity model Newtonian
Selecting turbulence model type laminar
Selecting laminar stress model Stokes
No MRF models present


SIMPLE: Convergence criteria found
        p: tolerance 1e-05
        U: tolerance 1e-05


SIMPLE: Operating solver in steady-state mode with 1 outer corrector
SIMPLE: Operating solver in SIMPLE mode



Starting time loop

wallShearStress wallShearStress:
    processing wall patches: 
        wall-fluid_domain

Time = 1s

smoothSolver:  Solving for Ux, Initial residual = 1, Final residual = 0.064027448, No Iterations 1
smoothSolver:  Solving for Uy, Initial residual = 1, Final residual = 0.053809622, No Iterations 1
smoothSolver:  Solving for Uz, Initial residual = 1, Final residual = 0.036249656, No Iterations 1
GAMG:  Solving for p, Initial residual = 1, Final residual = 0.0088084212, No Iterations 10
time step continuity errors : sum local = 5.9429121e-05, global = -1.0908453e-06, cumulative = -1.0908453e-06
ExecutionTime = 0.789091 s  ClockTime = 1 s

Time = 2s

smoothSolver:  Solving for Ux, Initial residual = 0.24833419, Final residual = 0.021444184, No Iterations 2
smoothSolver:  Solving for Uy, Initial residual = 0.25686392, Final residual = 0.010522898, No Iterations 2
smoothSolver:  Solving for Uz, Initial residual = 0.30137909, Final residual = 0.0096158949, No Iterations 3
GAMG:  Solving for p, Initial residual = 0.23630822, Final residual = 0.0011242295, No Iterations 6
time step continuity errors : sum local = 0.0013650519, global = -2.3025687e-05, cumulative = -2.4116533e-05
ExecutionTime = 1.05415 s  ClockTime = 1 s

Time = 3s

smoothSolver:  Solving for Ux, Initial residual = 0.24358885, Final residual = 0.0078562574, No Iterations 3
smoothSolver:  Solving for Uy, Initial residual = 0.11771713, Final residual = 0.0065914486, No Iterations 2
smoothSolver:  Solving for Uz, Initial residual = 0.46820819, Final residual = 0.016215241, No Iterations 3
GAMG:  Solving for p, Initial residual = 0.14971319, Final residual = 0.0006162571, No Iterations 4
time step continuity errors : sum local = 0.0020179277, global = 1.0121255e-05, cumulative = -1.3995278e-05
ExecutionTime = 1.266051 s  ClockTime = 1 s

Time = 4s

smoothSolver:  Solving for Ux, Initial residual = 0.14465296, Final residual = 0.004794331, No Iterations 3
smoothSolver:  Solving for Uy, Initial residual = 0.064505831, Final residual = 0.0036535095, No Iterations 2
smoothSolver:  Solving for Uz, Initial residual = 0.2886939, Final residual = 0.010026302, No Iterations 3
GAMG:  Solving for p, Initial residual = 0.096852304, Final residual = 0.00036411338, No Iterations 6
time step continuity errors : sum local = 0.0010976065, global = 8.2050938e-06, cumulative = -5.7901843e-06
ExecutionTime = 1.503767 s  ClockTime = 1 s

Time = 5s

smoothSolver:  Solving for Ux, Initial residual = 0.0587311, Final residual = 0.005601252, No Iterations 2
smoothSolver:  Solving for Uy, Initial residual = 0.21652652, Final residual = 0.013534519, No Iterations 2
smoothSolver:  Solving for Uz, Initial residual = 0.092896693, Final residual = 0.003225087, No Iterations 3
GAMG:  Solving for p, Initial residual = 0.1322151, Final residual = 0.00080160785, No Iterations 6
time step continuity errors : sum local = 0.0010729517, global = 1.7777728e-05, cumulative = 1.1987544e-05
ExecutionTime = 1.73644 s  ClockTime = 2 s

Time = 6s

smoothSolver:  Solving for Ux, Initial residual = 0.075679226, Final residual = 0.0068099157, No Iterations 2
smoothSolver:  Solving for Uy, Initial residual = 0.39177174, Final residual = 0.023728525, No Iterations 2
smoothSolver:  Solving for Uz, Initial residual = 0.070589177, Final residual = 0.0023748157, No Iterations 3
GAMG:  Solving for p, Initial residual = 0.40021579, Final residual = 0.0029893647, No Iterations 4
time step continuity errors : sum local = 0.0032479917, global = 4.856689e-05, cumulative = 6.0554434e-05
ExecutionTime = 1.946007 s  ClockTime = 2 s

Time = 7s

smoothSolver:  Solving for Ux, Initial residual = 0.12179055, Final residual = 0.011954808, No Iterations 2
smoothSolver:  Solving for Uy, Initial residual = 0.22331391, Final residual = 0.012897094, No Iterations 2
smoothSolver:  Solving for Uz, Initial residual = 0.16712035, Final residual = 0.0057645314, No Iterations 3
GAMG:  Solving for p, Initial residual = 0.2681788, Final residual = 0.0012589839, No Iterations 4
time step continuity errors : sum local = 0.0021192276, global = -6.8800708e-06, cumulative = 5.3674363e-05
ExecutionTime = 2.15852 s  ClockTime = 2 s

Time = 8s

smoothSolver:  Solving for Ux, Initial residual = 0.10097238, Final residual = 0.0032097896, No Iterations 3
smoothSolver:  Solving for Uy, Initial residual = 0.1275704, Final residual = 0.0085895605, No Iterations 2
smoothSolver:  Solving for Uz, Initial residual = 0.15998006, Final residual = 0.0055228937, No Iterations 3
GAMG:  Solving for p, Initial residual = 0.20997925, Final residual = 0.0011622546, No Iterations 5
time step continuity errors : sum local = 0.0015060463, global = -1.2911176e-05, cumulative = 4.0763186e-05
ExecutionTime = 2.380571 s  ClockTime = 2 s

Time = 9s

smoothSolver:  Solving for Ux, Initial residual = 0.040872219, Final residual = 0.0035322867, No Iterations 2
smoothSolver:  Solving for Uy, Initial residual = 0.28782082, Final residual = 0.021166915, No Iterations 2
smoothSolver:  Solving for Uz, Initial residual = 0.047772063, Final residual = 0.001521457, No Iterations 3
GAMG:  Solving for p, Initial residual = 0.26468142, Final residual = 0.001125296, No Iterations 6
time step continuity errors : sum local = 0.00047755735, global = -5.6447216e-06, cumulative = 3.5118465e-05
ExecutionTime = 2.61605 s  ClockTime = 3 s

Time = 10s

smoothSolver:  Solving for Ux, Initial residual = 0.059202751, Final residual = 0.0055930503, No Iterations 2
smoothSolver:  Solving for Uy, Initial residual = 0.37235395, Final residual = 0.024731658, No Iterations 2
smoothSolver:  Solving for Uz, Initial residual = 0.065188167, Final residual = 0.0022487784, No Iterations 3
GAMG:  Solving for p, Initial residual = 0.29188019, Final residual = 0.0020149309, No Iterations 4
time step continuity errors : sum local = 0.0012672735, global = -1.3672654e-05, cumulative = 2.1445811e-05
ExecutionTime = 2.824516 s  ClockTime = 3 s

Time = 11s

smoothSolver:  Solving for Ux, Initial residual = 0.060644368, Final residual = 0.006047873, No Iterations 2
smoothSolver:  Solving for Uy, Initial residual = 0.20130098, Final residual = 0.012161671, No Iterations 2
smoothSolver:  Solving for Uz, Initial residual = 0.087156075, Final residual = 0.0030293614, No Iterations 3
GAMG:  Solving for p, Initial residual = 0.22205679, Final residual = 0.0015765517, No Iterations 4
time step continuity errors : sum local = 0.00129085, global = 6.9968653e-06, cumulative = 2.8442676e-05
ExecutionTime = 3.034609 s  ClockTime = 3 s

Time = 12s

smoothSolver:  Solving for Ux, Initial residual = 0.036897501, Final residual = 0.0011983022, No Iterations 3
smoothSolver:  Solving for Uy, Initial residual = 0.14924708, Final residual = 0.011798912, No Iterations 2
smoothSolver:  Solving for Uz, Initial residual = 0.054304649, Final residual = 0.0018945666, No Iterations 3
GAMG:  Solving for p, Initial residual = 0.16805526, Final residual = 0.0012602642, No Iterations 5
time step continuity errors : sum local = 0.00073113255, global = 4.781342e-06, cumulative = 3.3224018e-05
ExecutionTime = 3.257988 s  ClockTime = 3 s

Time = 13s

smoothSolver:  Solving for Ux, Initial residual = 0.015691358, Final residual = 0.0012951855, No Iterations 2
smoothSolver:  Solving for Uy, Initial residual = 0.3199964, Final residual = 0.025285987, No Iterations 2
smoothSolver:  Solving for Uz, Initial residual = 0.012133142, Final residual = 0.0010974707, No Iterations 2
GAMG:  Solving for p, Initial residual = 0.33711274, Final residual = 0.0030384998, No Iterations 5
time step continuity errors : sum local = 0.00053720746, global = 2.3883189e-06, cumulative = 3.5612337e-05
ExecutionTime = 3.475806 s  ClockTime = 3 s

Time = 14s

smoothSolver:  Solving for Ux, Initial residual = 0.026912505, Final residual = 0.0025564663, No Iterations 2
smoothSolver:  Solving for Uy, Initial residual = 0.29950467, Final residual = 0.021393319, No Iterations 2
smoothSolver:  Solving for Uz, Initial residual = 0.03063597, Final residual = 0.0010390311, No Iterations 3
GAMG:  Solving for p, Initial residual = 0.29877903, Final residual = 0.0016478275, No Iterations 4
time step continuity errors : sum local = 0.00052483676, global = 5.9568132e-06, cumulative = 4.156915e-05
ExecutionTime = 3.690383 s  ClockTime = 4 s

Time = 15s

smoothSolver:  Solving for Ux, Initial residual = 0.027650307, Final residual = 0.0027408699, No Iterations 2
smoothSolver:  Solving for Uy, Initial residual = 0.15743416, Final residual = 0.010311851, No Iterations 2
smoothSolver:  Solving for Uz, Initial residual = 0.038384381, Final residual = 0.00131239, No Iterations 3
GAMG:  Solving for p, Initial residual = 0.23139819, Final residual = 0.0019534082, No Iterations 4
time step continuity errors : sum local = 0.00069855579, global = -4.5580462e-06, cumulative = 3.7011104e-05
ExecutionTime = 3.901139 s  ClockTime = 4 s

Time = 16s

smoothSolver:  Solving for Ux, Initial residual = 0.016878309, Final residual = 0.00052674108, No Iterations 3
smoothSolver:  Solving for Uy, Initial residual = 0.14981802, Final residual = 0.01271558, No Iterations 2
smoothSolver:  Solving for Uz, Initial residual = 0.022126161, Final residual = 0.00074884994, No Iterations 3
GAMG:  Solving for p, Initial residual = 0.18371706, Final residual = 0.0015521222, No Iterations 5
time step continuity errors : sum local = 0.00033987227, global = -2.2254025e-06, cumulative = 3.4785701e-05
ExecutionTime = 4.124717 s  ClockTime = 4 s

Time = 17s

smoothSolver:  Solving for Ux, Initial residual = 0.0091366438, Final residual = 0.0007896207, No Iterations 2
smoothSolver:  Solving for Uy, Initial residual = 0.25416321, Final residual = 0.020514559, No Iterations 2
smoothSolver:  Solving for Uz, Initial residual = 0.0068440156, Final residual = 0.00064042017, No Iterations 2
GAMG:  Solving for p, Initial residual = 0.315743, Final residual = 0.002153033, No Iterations 5
time step continuity errors : sum local = 0.00021909218, global = -1.2977525e-06, cumulative = 3.3487949e-05
ExecutionTime = 4.342728 s  ClockTime = 4 s

Time = 18s

smoothSolver:  Solving for Ux, Initial residual = 0.014392799, Final residual = 0.0014264563, No Iterations 2
smoothSolver:  Solving for Uy, Initial residual = 0.19946897, Final residual = 0.014579468, No Iterations 2
smoothSolver:  Solving for Uz, Initial residual = 0.017784672, Final residual = 0.00062412877, No Iterations 3
GAMG:  Solving for p, Initial residual = 0.21368362, Final residual = 0.001054866, No Iterations 4
time step continuity errors : sum local = 0.00022338565, global = -6.1914676e-07, cumulative = 3.2868802e-05
ExecutionTime = 4.551018 s  ClockTime = 5 s

Time = 19s

smoothSolver:  Solving for Ux, Initial residual = 0.012491504, Final residual = 0.00040392181, No Iterations 3
smoothSolver:  Solving for Uy, Initial residual = 0.10829502, Final residual = 0.0078125628, No Iterations 2
smoothSolver:  Solving for Uz, Initial residual = 0.017453993, Final residual = 0.00061495882, No Iterations 3
GAMG:  Solving for p, Initial residual = 0.16572178, Final residual = 0.00069675564, No Iterations 5
time step continuity errors : sum local = 0.00014776036, global = 1.1058776e-06, cumulative = 3.397468e-05
ExecutionTime = 4.77416 s  ClockTime = 5 s

Time = 20s

smoothSolver:  Solving for Ux, Initial residual = 0.0072412622, Final residual = 0.00023401936, No Iterations 3
smoothSolver:  Solving for Uy, Initial residual = 0.12326919, Final residual = 0.010954398, No Iterations 2
smoothSolver:  Solving for Uz, Initial residual = 0.0084607452, Final residual = 0.00029432161, No Iterations 3
GAMG:  Solving for p, Initial residual = 0.11291096, Final residual = 0.0011010077, No Iterations 5
time step continuity errors : sum local = 0.00015354093, global = 8.6413538e-07, cumulative = 3.4838815e-05
ExecutionTime = 4.999716 s  ClockTime = 5 s

Time = 21s

smoothSolver:  Solving for Ux, Initial residual = 0.0050927013, Final residual = 0.0004450175, No Iterations 2
smoothSolver:  Solving for Uy, Initial residual = 0.16022067, Final residual = 0.013353587, No Iterations 2
smoothSolver:  Solving for Uz, Initial residual = 0.0042086864, Final residual = 0.0003909506, No Iterations 2
GAMG:  Solving for p, Initial residual = 0.29473944, Final residual = 0.0014493208, No Iterations 5
time step continuity errors : sum local = 8.6464341e-05, global = 5.4547693e-07, cumulative = 3.5384292e-05
ExecutionTime = 5.22173 s  ClockTime = 5 s

Time = 22s

smoothSolver:  Solving for Ux, Initial residual = 0.0064235894, Final residual = 0.00061225633, No Iterations 2
smoothSolver:  Solving for Uy, Initial residual = 0.11666335, Final residual = 0.0089167892, No Iterations 2
smoothSolver:  Solving for Uz, Initial residual = 0.0080164252, Final residual = 0.00026474421, No Iterations 3
GAMG:  Solving for p, Initial residual = 0.21818351, Final residual = 0.0013989266, No Iterations 4
time step continuity errors : sum local = 0.00013915019, global = -8.3190849e-07, cumulative = 3.4552383e-05
ExecutionTime = 5.432612 s  ClockTime = 5 s

Time = 23s

smoothSolver:  Solving for Ux, Initial residual = 0.0051322284, Final residual = 0.00050516391, No Iterations 2
smoothSolver:  Solving for Uy, Initial residual = 0.066545823, Final residual = 0.0052888606, No Iterations 2
smoothSolver:  Solving for Uz, Initial residual = 0.0069886041, Final residual = 0.00023062023, No Iterations 3
GAMG:  Solving for p, Initial residual = 0.16909383, Final residual = 0.00081664158, No Iterations 5
time step continuity errors : sum local = 7.4056569e-05, global = -4.7701812e-07, cumulative = 3.4075365e-05
ExecutionTime = 5.654223 s  ClockTime = 6 s

Time = 24s

smoothSolver:  Solving for Ux, Initial residual = 0.0032390094, Final residual = 0.00030751902, No Iterations 2
smoothSolver:  Solving for Uy, Initial residual = 0.080908306, Final residual = 0.0072756877, No Iterations 2
smoothSolver:  Solving for Uz, Initial residual = 0.0031058349, Final residual = 0.00030605623, No Iterations 2
GAMG:  Solving for p, Initial residual = 0.13568826, Final residual = 0.0012464025, No Iterations 5
time step continuity errors : sum local = 6.6422457e-05, global = -3.7783121e-07, cumulative = 3.3697534e-05
ExecutionTime = 5.872681 s  ClockTime = 6 s

Time = 25s

smoothSolver:  Solving for Ux, Initial residual = 0.0036332908, Final residual = 0.00035938475, No Iterations 2
smoothSolver:  Solving for Uy, Initial residual = 0.086901054, Final residual = 0.0073747116, No Iterations 2
smoothSolver:  Solving for Uz, Initial residual = 0.0039050658, Final residual = 0.00013211196, No Iterations 3
GAMG:  Solving for p, Initial residual = 0.10709755, Final residual = 0.00098215398, No Iterations 4
time step continuity errors : sum local = 8.3230618e-05, global = -6.5939063e-07, cumulative = 3.3038143e-05
ExecutionTime = 6.081932 s  ClockTime = 6 s

Time = 26s

smoothSolver:  Solving for Ux, Initial residual = 0.0037277082, Final residual = 0.00012057057, No Iterations 3
smoothSolver:  Solving for Uy, Initial residual = 0.059615713, Final residual = 0.0048666634, No Iterations 2
smoothSolver:  Solving for Uz, Initial residual = 0.0048141835, Final residual = 0.00016928615, No Iterations 3
GAMG:  Solving for p, Initial residual = 0.097753467, Final residual = 0.00076147217, No Iterations 4
time step continuity errors : sum local = 7.5909006e-05, global = 2.7263249e-07, cumulative = 3.3310776e-05
ExecutionTime = 6.292659 s  ClockTime = 6 s

Time = 27s

smoothSolver:  Solving for Ux, Initial residual = 0.0031174043, Final residual = 0.00010357641, No Iterations 3
smoothSolver:  Solving for Uy, Initial residual = 0.041158194, Final residual = 0.0037765098, No Iterations 2
smoothSolver:  Solving for Uz, Initial residual = 0.0040756704, Final residual = 0.00014187635, No Iterations 3
GAMG:  Solving for p, Initial residual = 0.06705308, Final residual = 0.00038994196, No Iterations 5
time step continuity errors : sum local = 3.6435539e-05, global = 1.944133e-07, cumulative = 3.3505189e-05
ExecutionTime = 6.519823 s  ClockTime = 7 s

Time = 28s

smoothSolver:  Solving for Ux, Initial residual = 0.0026498678, Final residual = 8.372445e-05, No Iterations 3
smoothSolver:  Solving for Uy, Initial residual = 0.048932881, Final residual = 0.0045889248, No Iterations 2
smoothSolver:  Solving for Uz, Initial residual = 0.0029187036, Final residual = 9.5984885e-05, No Iterations 3
GAMG:  Solving for p, Initial residual = 0.049655809, Final residual = 0.00038522849, No Iterations 5
time step continuity errors : sum local = 2.916017e-05, global = 1.632049e-07, cumulative = 3.3668394e-05
ExecutionTime = 6.743297 s  ClockTime = 7 s

Time = 29s

smoothSolver:  Solving for Ux, Initial residual = 0.0023185094, Final residual = 0.00022710826, No Iterations 2
smoothSolver:  Solving for Uy, Initial residual = 0.047456194, Final residual = 0.0042483982, No Iterations 2
smoothSolver:  Solving for Uz, Initial residual = 0.0023848934, Final residual = 7.4182704e-05, No Iterations 3
GAMG:  Solving for p, Initial residual = 0.08357237, Final residual = 0.00061109313, No Iterations 4
time step continuity errors : sum local = 3.7204674e-05, global = 3.3138982e-07, cumulative = 3.3999784e-05
ExecutionTime = 6.951354 s  ClockTime = 7 s

Time = 30s

smoothSolver:  Solving for Ux, Initial residual = 0.002060897, Final residual = 0.0002028147, No Iterations 2
smoothSolver:  Solving for Uy, Initial residual = 0.033639494, Final residual = 0.0030170079, No Iterations 2
smoothSolver:  Solving for Uz, Initial residual = 0.0022934025, Final residual = 7.1230066e-05, No Iterations 3
GAMG:  Solving for p, Initial residual = 0.087172392, Final residual = 0.00066098765, No Iterations 4
time step continuity errors : sum local = 3.7159267e-05, global = -1.6704745e-07, cumulative = 3.3832736e-05
ExecutionTime = 7.162028 s  ClockTime = 7 s

Time = 31s

smoothSolver:  Solving for Ux, Initial residual = 0.0019536097, Final residual = 6.0927009e-05, No Iterations 3
smoothSolver:  Solving for Uy, Initial residual = 0.027813392, Final residual = 0.0026944939, No Iterations 2
smoothSolver:  Solving for Uz, Initial residual = 0.002211068, Final residual = 7.0302648e-05, No Iterations 3
GAMG:  Solving for p, Initial residual = 0.053357016, Final residual = 0.0002756774, No Iterations 5
time step continuity errors : sum local = 1.655983e-05, global = -9.6862935e-08, cumulative = 3.3735874e-05
ExecutionTime = 7.386397 s  ClockTime = 7 s

Time = 32s

smoothSolver:  Solving for Ux, Initial residual = 0.0020365678, Final residual = 6.5071281e-05, No Iterations 3
smoothSolver:  Solving for Uy, Initial residual = 0.030702759, Final residual = 0.0029585351, No Iterations 2
smoothSolver:  Solving for Uz, Initial residual = 0.0023692617, Final residual = 7.7988373e-05, No Iterations 3
GAMG:  Solving for p, Initial residual = 0.034772281, Final residual = 0.00017145549, No Iterations 5
time step continuity errors : sum local = 1.1686709e-05, global = -8.1168657e-08, cumulative = 3.3654705e-05
ExecutionTime = 7.6105 s  ClockTime = 8 s

Time = 33s

smoothSolver:  Solving for Ux, Initial residual = 0.0020678132, Final residual = 6.74152e-05, No Iterations 3
smoothSolver:  Solving for Uy, Initial residual = 0.028337988, Final residual = 0.0027013709, No Iterations 2
smoothSolver:  Solving for Uz, Initial residual = 0.0025566594, Final residual = 8.6154771e-05, No Iterations 3
GAMG:  Solving for p, Initial residual = 0.03665579, Final residual = 0.00020377728, No Iterations 4
time step continuity errors : sum local = 1.5159276e-05, global = -1.705404e-07, cumulative = 3.3484164e-05
ExecutionTime = 7.823257 s  ClockTime = 8 s

Time = 34s

smoothSolver:  Solving for Ux, Initial residual = 0.0019747584, Final residual = 6.5409191e-05, No Iterations 3
smoothSolver:  Solving for Uy, Initial residual = 0.023009658, Final residual = 0.0022757374, No Iterations 2
smoothSolver:  Solving for Uz, Initial residual = 0.0025383774, Final residual = 8.5877107e-05, No Iterations 3
GAMG:  Solving for p, Initial residual = 0.032118515, Final residual = 0.00026234693, No Iterations 4
time step continuity errors : sum local = 1.9848155e-05, global = 1.3590069e-07, cumulative = 3.3620065e-05
ExecutionTime = 8.036334 s  ClockTime = 8 s

Time = 35s

smoothSolver:  Solving for Ux, Initial residual = 0.0018647047, Final residual = 6.1649496e-05, No Iterations 3
smoothSolver:  Solving for Uy, Initial residual = 0.021624952, Final residual = 0.00068573796, No Iterations 3
smoothSolver:  Solving for Uz, Initial residual = 0.0023598126, Final residual = 7.9146625e-05, No Iterations 3
GAMG:  Solving for p, Initial residual = 0.024808546, Final residual = 0.00011473294, No Iterations 5
time step continuity errors : sum local = 8.3900723e-06, global = 4.9391481e-08, cumulative = 3.3669457e-05
ExecutionTime = 8.26204 s  ClockTime = 8 s

Time = 36s

smoothSolver:  Solving for Ux, Initial residual = 0.0017783662, Final residual = 5.7921374e-05, No Iterations 3
smoothSolver:  Solving for Uy, Initial residual = 0.021754224, Final residual = 0.00067860842, No Iterations 3
smoothSolver:  Solving for Uz, Initial residual = 0.0021632609, Final residual = 7.1590557e-05, No Iterations 3
GAMG:  Solving for p, Initial residual = 0.025790131, Final residual = 0.00020085508, No Iterations 4
time step continuity errors : sum local = 1.3934071e-05, global = 1.1167244e-07, cumulative = 3.3781129e-05
ExecutionTime = 8.483469 s  ClockTime = 9 s

Time = 37s

smoothSolver:  Solving for Ux, Initial residual = 0.0017016027, Final residual = 5.5118597e-05, No Iterations 3
smoothSolver:  Solving for Uy, Initial residual = 0.019913512, Final residual = 0.00062029481, No Iterations 3
smoothSolver:  Solving for Uz, Initial residual = 0.00204992, Final residual = 6.7391561e-05, No Iterations 3
GAMG:  Solving for p, Initial residual = 0.028627723, Final residual = 0.00013725929, No Iterations 4
time step continuity errors : sum local = 9.2075272e-06, global = 9.1881924e-08, cumulative = 3.3873011e-05
ExecutionTime = 8.702078 s  ClockTime = 9 s

Time = 38s

smoothSolver:  Solving for Ux, Initial residual = 0.0016486647, Final residual = 5.3728016e-05, No Iterations 3
smoothSolver:  Solving for Uy, Initial residual = 0.0179321, Final residual = 0.00057145668, No Iterations 3
smoothSolver:  Solving for Uz, Initial residual = 0.0020036815, Final residual = 6.6040245e-05, No Iterations 3
GAMG:  Solving for p, Initial residual = 0.0258819, Final residual = 0.00015652305, No Iterations 4
time step continuity errors : sum local = 1.0491111e-05, global = -5.6407381e-08, cumulative = 3.3816604e-05
ExecutionTime = 8.916431 s  ClockTime = 9 s

Time = 39s

smoothSolver:  Solving for Ux, Initial residual = 0.0016294436, Final residual = 5.3512578e-05, No Iterations 3
smoothSolver:  Solving for Uy, Initial residual = 0.017511182, Final residual = 0.00056336976, No Iterations 3
smoothSolver:  Solving for Uz, Initial residual = 0.001994503, Final residual = 6.6254162e-05, No Iterations 3
GAMG:  Solving for p, Initial residual = 0.021611339, Final residual = 0.00014022458, No Iterations 4
time step continuity errors : sum local = 9.5980235e-06, global = -6.6977702e-08, cumulative = 3.3749626e-05
ExecutionTime = 9.131955 s  ClockTime = 9 s

Time = 40s

smoothSolver:  Solving for Ux, Initial residual = 0.0016159816, Final residual = 5.3406389e-05, No Iterations 3
smoothSolver:  Solving for Uy, Initial residual = 0.017298117, Final residual = 0.0005554823, No Iterations 3
smoothSolver:  Solving for Uz, Initial residual = 0.001998344, Final residual = 6.6955722e-05, No Iterations 3
GAMG:  Solving for p, Initial residual = 0.020009544, Final residual = 0.00010540952, No Iterations 4
time step continuity errors : sum local = 7.397115e-06, global = -6.0186638e-08, cumulative = 3.3689439e-05
ExecutionTime = 9.345437 s  ClockTime = 9 s

Time = 41s

smoothSolver:  Solving for Ux, Initial residual = 0.0015885484, Final residual = 5.2752216e-05, No Iterations 3
smoothSolver:  Solving for Uy, Initial residual = 0.016521809, Final residual = 0.00053406333, No Iterations 3
smoothSolver:  Solving for Uz, Initial residual = 0.001984448, Final residual = 6.6821378e-05, No Iterations 3
GAMG:  Solving for p, Initial residual = 0.019435803, Final residual = 0.00010444972, No Iterations 4
time step continuity errors : sum local = 7.4336475e-06, global = 5.5976884e-08, cumulative = 3.3745416e-05
ExecutionTime = 9.557972 s  ClockTime = 10 s

Time = 42s

smoothSolver:  Solving for Ux, Initial residual = 0.0015533699, Final residual = 5.167825e-05, No Iterations 3
smoothSolver:  Solving for Uy, Initial residual = 0.015802978, Final residual = 0.00051608316, No Iterations 3
smoothSolver:  Solving for Uz, Initial residual = 0.001943152, Final residual = 6.5477497e-05, No Iterations 3
GAMG:  Solving for p, Initial residual = 0.018408591, Final residual = 0.00011056141, No Iterations 4
time step continuity errors : sum local = 7.8743381e-06, global = 4.3295101e-08, cumulative = 3.3788711e-05
ExecutionTime = 9.770044 s  ClockTime = 10 s

Time = 43s

smoothSolver:  Solving for Ux, Initial residual = 0.001518796, Final residual = 5.0445637e-05, No Iterations 3
smoothSolver:  Solving for Uy, Initial residual = 0.015392542, Final residual = 0.00050424878, No Iterations 3
smoothSolver:  Solving for Uz, Initial residual = 0.0018850395, Final residual = 6.3383235e-05, No Iterations 3
GAMG:  Solving for p, Initial residual = 0.017882554, Final residual = 0.0001048436, No Iterations 4
time step continuity errors : sum local = 7.4024065e-06, global = 4.3575212e-08, cumulative = 3.3832287e-05
ExecutionTime = 9.987205 s  ClockTime = 10 s

Time = 44s

smoothSolver:  Solving for Ux, Initial residual = 0.0014872902, Final residual = 4.9297212e-05, No Iterations 3
smoothSolver:  Solving for Uy, Initial residual = 0.014980107, Final residual = 0.00049076497, No Iterations 3
smoothSolver:  Solving for Uz, Initial residual = 0.0018305988, Final residual = 6.1421549e-05, No Iterations 3
GAMG:  Solving for p, Initial residual = 0.018090916, Final residual = 9.4708752e-05, No Iterations 4
time step continuity errors : sum local = 6.62438e-06, global = 4.7643482e-08, cumulative = 3.387993e-05
ExecutionTime = 10.199847 s  ClockTime = 10 s

Time = 45s

smoothSolver:  Solving for Ux, Initial residual = 0.0014597601, Final residual = 4.8386089e-05, No Iterations 3
smoothSolver:  Solving for Uy, Initial residual = 0.01448923, Final residual = 0.00047610599, No Iterations 3
smoothSolver:  Solving for Uz, Initial residual = 0.0017891118, Final residual = 6.0017068e-05, No Iterations 3
GAMG:  Solving for p, Initial residual = 0.01793336, Final residual = 0.00011253411, No Iterations 3
time step continuity errors : sum local = 7.8417776e-06, global = 1.1710681e-07, cumulative = 3.3997037e-05
ExecutionTime = 10.402981 s  ClockTime = 10 s

Time = 46s

smoothSolver:  Solving for Ux, Initial residual = 0.0014372909, Final residual = 4.7726908e-05, No Iterations 3
smoothSolver:  Solving for Uy, Initial residual = 0.014091466, Final residual = 0.00046470967, No Iterations 3
smoothSolver:  Solving for Uz, Initial residual = 0.001759244, Final residual = 5.9125724e-05, No Iterations 3
GAMG:  Solving for p, Initial residual = 0.017191526, Final residual = 0.00015379892, No Iterations 3
time step continuity errors : sum local = 1.0749883e-05, global = -5.1930898e-08, cumulative = 3.3945106e-05
ExecutionTime = 10.603865 s  ClockTime = 11 s

Time = 47s

smoothSolver:  Solving for Ux, Initial residual = 0.0014179861, Final residual = 4.7174175e-05, No Iterations 3
smoothSolver:  Solving for Uy, Initial residual = 0.01380777, Final residual = 0.00045620333, No Iterations 3
smoothSolver:  Solving for Uz, Initial residual = 0.0017335485, Final residual = 5.8393876e-05, No Iterations 3
GAMG:  Solving for p, Initial residual = 0.016541051, Final residual = 7.6965388e-05, No Iterations 4
time step continuity errors : sum local = 5.406242e-06, global = -2.5976521e-08, cumulative = 3.3919129e-05
ExecutionTime = 10.818869 s  ClockTime = 11 s

Time = 48s

smoothSolver:  Solving for Ux, Initial residual = 0.0013997237, Final residual = 4.6658217e-05, No Iterations 3
smoothSolver:  Solving for Uy, Initial residual = 0.013523093, Final residual = 0.00044747314, No Iterations 3
smoothSolver:  Solving for Uz, Initial residual = 0.001710511, Final residual = 5.7762502e-05, No Iterations 3
GAMG:  Solving for p, Initial residual = 0.016048225, Final residual = 9.5344173e-05, No Iterations 3
time step continuity errors : sum local = 6.7371041e-06, global = 1.5959989e-08, cumulative = 3.3935089e-05
ExecutionTime = 11.022365 s  ClockTime = 11 s

Time = 49s

smoothSolver:  Solving for Ux, Initial residual = 0.0013800578, Final residual = 4.6072299e-05, No Iterations 3
smoothSolver:  Solving for Uy, Initial residual = 0.013201187, Final residual = 0.00043782627, No Iterations 3
smoothSolver:  Solving for Uz, Initial residual = 0.0016847925, Final residual = 5.6986492e-05, No Iterations 3
GAMG:  Solving for p, Initial residual = 0.015676993, Final residual = 0.00014678566, No Iterations 3
time step continuity errors : sum local = 1.0409448e-05, global = 1.4111347e-07, cumulative = 3.4076203e-05
ExecutionTime = 11.223153 s  ClockTime = 11 s

Time = 50s

smoothSolver:  Solving for Ux, Initial residual = 0.001361008, Final residual = 4.5481562e-05, No Iterations 3
smoothSolver:  Solving for Uy, Initial residual = 0.012903753, Final residual = 0.00042885718, No Iterations 3
smoothSolver:  Solving for Uz, Initial residual = 0.0016578135, Final residual = 5.6131742e-05, No Iterations 3
GAMG:  Solving for p, Initial residual = 0.015347569, Final residual = 9.2035101e-05, No Iterations 4
time step continuity errors : sum local = 6.5401704e-06, global = 5.3754874e-08, cumulative = 3.4129958e-05
ExecutionTime = 11.435076 s  ClockTime = 11 s

Time = 51s

smoothSolver:  Solving for Ux, Initial residual = 0.0013419846, Final residual = 4.4844865e-05, No Iterations 3
smoothSolver:  Solving for Uy, Initial residual = 0.012640416, Final residual = 0.0004208026, No Iterations 3
smoothSolver:  Solving for Uz, Initial residual = 0.0016275357, Final residual = 5.5098852e-05, No Iterations 3
GAMG:  Solving for p, Initial residual = 0.015155367, Final residual = 8.7357023e-05, No Iterations 4
time step continuity errors : sum local = 6.2006186e-06, global = 4.8345894e-08, cumulative = 3.4178304e-05
ExecutionTime = 11.650978 s  ClockTime = 12 s

Time = 52s

smoothSolver:  Solving for Ux, Initial residual = 0.0013240219, Final residual = 4.4245667e-05, No Iterations 3
smoothSolver:  Solving for Uy, Initial residual = 0.012390243, Final residual = 0.00041292868, No Iterations 3
smoothSolver:  Solving for Uz, Initial residual = 0.0015977725, Final residual = 5.4084832e-05, No Iterations 3
GAMG:  Solving for p, Initial residual = 0.015011715, Final residual = 8.0122477e-05, No Iterations 4
time step continuity errors : sum local = 5.6791839e-06, global = 4.6936734e-08, cumulative = 3.422524e-05
ExecutionTime = 11.864471 s  ClockTime = 12 s

Time = 53s

smoothSolver:  Solving for Ux, Initial residual = 0.0013074646, Final residual = 4.3716691e-05, No Iterations 3
smoothSolver:  Solving for Uy, Initial residual = 0.012145553, Final residual = 0.00040526088, No Iterations 3
smoothSolver:  Solving for Uz, Initial residual = 0.0015705649, Final residual = 5.3185788e-05, No Iterations 3
GAMG:  Solving for p, Initial residual = 0.014792544, Final residual = 0.0001063942, No Iterations 3
time step continuity errors : sum local = 7.5413553e-06, global = 1.003867e-07, cumulative = 3.4325627e-05
ExecutionTime = 12.064742 s  ClockTime = 12 s

Time = 54s

smoothSolver:  Solving for Ux, Initial residual = 0.0012921053, Final residual = 4.3253346e-05, No Iterations 3
smoothSolver:  Solving for Uy, Initial residual = 0.011909178, Final residual = 0.00039784679, No Iterations 3
smoothSolver:  Solving for Uz, Initial residual = 0.001546778, Final residual = 5.2444244e-05, No Iterations 3
GAMG:  Solving for p, Initial residual = 0.014459368, Final residual = 8.9764061e-05, No Iterations 3
time step continuity errors : sum local = 6.37637e-06, global = 9.8336547e-08, cumulative = 3.4423964e-05
ExecutionTime = 12.265532 s  ClockTime = 12 s

Time = 55s

smoothSolver:  Solving for Ux, Initial residual = 0.0012779022, Final residual = 4.2825568e-05, No Iterations 3
smoothSolver:  Solving for Uy, Initial residual = 0.011688062, Final residual = 0.00039085579, No Iterations 3
smoothSolver:  Solving for Uz, Initial residual = 0.0015241346, Final residual = 5.1740721e-05, No Iterations 3
GAMG:  Solving for p, Initial residual = 0.0141573, Final residual = 0.00010155383, No Iterations 3
time step continuity errors : sum local = 7.2320267e-06, global = 1.1866347e-07, cumulative = 3.4542627e-05
ExecutionTime = 12.46764 s  ClockTime = 13 s

Time = 56s

smoothSolver:  Solving for Ux, Initial residual = 0.0012647824, Final residual = 4.2427385e-05, No Iterations 3
smoothSolver:  Solving for Uy, Initial residual = 0.011476936, Final residual = 0.00038419186, No Iterations 3
smoothSolver:  Solving for Uz, Initial residual = 0.0015020021, Final residual = 5.1045087e-05, No Iterations 3
GAMG:  Solving for p, Initial residual = 0.013906309, Final residual = 0.00013388449, No Iterations 3
time step continuity errors : sum local = 9.5565384e-06, global = 1.3659449e-07, cumulative = 3.4679222e-05
ExecutionTime = 12.671823 s  ClockTime = 13 s

Time = 57s

smoothSolver:  Solving for Ux, Initial residual = 0.0012523529, Final residual = 4.2042652e-05, No Iterations 3
smoothSolver:  Solving for Uy, Initial residual = 0.01127619, Final residual = 0.00037782649, No Iterations 3
smoothSolver:  Solving for Uz, Initial residual = 0.0014800729, Final residual = 5.0343149e-05, No Iterations 3
GAMG:  Solving for p, Initial residual = 0.013703597, Final residual = 8.3847063e-05, No Iterations 4
time step continuity errors : sum local = 5.9952592e-06, global = 5.63214e-08, cumulative = 3.4735543e-05
ExecutionTime = 12.886932 s  ClockTime = 13 s

Time = 58s

smoothSolver:  Solving for Ux, Initial residual = 0.0012401112, Final residual = 4.1639739e-05, No Iterations 3
smoothSolver:  Solving for Uy, Initial residual = 0.011087642, Final residual = 0.00037181508, No Iterations 3
smoothSolver:  Solving for Uz, Initial residual = 0.0014577016, Final residual = 4.9600603e-05, No Iterations 3
GAMG:  Solving for p, Initial residual = 0.013557961, Final residual = 7.9592066e-05, No Iterations 4
time step continuity errors : sum local = 5.6932007e-06, global = 5.1360954e-08, cumulative = 3.4786904e-05
ExecutionTime = 13.10063 s  ClockTime = 13 s

Time = 59s

smoothSolver:  Solving for Ux, Initial residual = 0.001227887, Final residual = 4.1240089e-05, No Iterations 3
smoothSolver:  Solving for Uy, Initial residual = 0.010899461, Final residual = 0.00036577243, No Iterations 3
smoothSolver:  Solving for Uz, Initial residual = 0.0014360267, Final residual = 4.8888099e-05, No Iterations 3
GAMG:  Solving for p, Initial residual = 0.013391951, Final residual = 0.0001216099, No Iterations 3
time step continuity errors : sum local = 8.7032931e-06, global = 1.1029057e-07, cumulative = 3.4897194e-05
ExecutionTime = 13.303319 s  ClockTime = 13 s

Time = 60s

smoothSolver:  Solving for Ux, Initial residual = 0.001215806, Final residual = 4.0858788e-05, No Iterations 3
smoothSolver:  Solving for Uy, Initial residual = 0.010707978, Final residual = 0.0003596291, No Iterations 3
smoothSolver:  Solving for Uz, Initial residual = 0.0014157997, Final residual = 4.8246795e-05, No Iterations 3
GAMG:  Solving for p, Initial residual = 0.013164943, Final residual = 0.00011651291, No Iterations 3
time step continuity errors : sum local = 8.3518964e-06, global = 1.0555424e-07, cumulative = 3.5002749e-05
ExecutionTime = 13.50451 s  ClockTime = 14 s

Time = 61s

smoothSolver:  Solving for Ux, Initial residual = 0.0012044354, Final residual = 4.049918e-05, No Iterations 3
smoothSolver:  Solving for Uy, Initial residual = 0.010524516, Final residual = 0.00035371753, No Iterations 3
smoothSolver:  Solving for Uz, Initial residual = 0.0013960083, Final residual = 4.7617128e-05, No Iterations 3
GAMG:  Solving for p, Initial residual = 0.012953212, Final residual = 0.00012346763, No Iterations 3
time step continuity errors : sum local = 8.8652128e-06, global = 1.055714e-07, cumulative = 3.510832e-05
ExecutionTime = 13.706392 s  ClockTime = 14 s

Time = 62s

smoothSolver:  Solving for Ux, Initial residual = 0.0011939434, Final residual = 4.0165261e-05, No Iterations 3
smoothSolver:  Solving for Uy, Initial residual = 0.010350527, Final residual = 0.00034809484, No Iterations 3
smoothSolver:  Solving for Uz, Initial residual = 0.0013764793, Final residual = 4.6989266e-05, No Iterations 3
GAMG:  Solving for p, Initial residual = 0.012768466, Final residual = 7.5198298e-05, No Iterations 4
time step continuity errors : sum local = 5.407697e-06, global = 4.2387544e-08, cumulative = 3.5150708e-05
ExecutionTime = 13.919834 s  ClockTime = 14 s

Time = 63s

smoothSolver:  Solving for Ux, Initial residual = 0.0011843443, Final residual = 3.9847225e-05, No Iterations 3
smoothSolver:  Solving for Uy, Initial residual = 0.010186077, Final residual = 0.00034278699, No Iterations 3
smoothSolver:  Solving for Uz, Initial residual = 0.0013567594, Final residual = 4.6336921e-05, No Iterations 3
GAMG:  Solving for p, Initial residual = 0.012629685, Final residual = 0.00011522752, No Iterations 3
time step continuity errors : sum local = 8.292758e-06, global = 1.0940431e-07, cumulative = 3.5260112e-05
ExecutionTime = 14.121493 s  ClockTime = 14 s

Time = 64s

smoothSolver:  Solving for Ux, Initial residual = 0.0011746631, Final residual = 3.9537903e-05, No Iterations 3
smoothSolver:  Solving for Uy, Initial residual = 0.010018602, Final residual = 0.0003374105, No Iterations 3
smoothSolver:  Solving for Uz, Initial residual = 0.001338376, Final residual = 4.5747619e-05, No Iterations 3
GAMG:  Solving for p, Initial residual = 0.012447657, Final residual = 0.00011846508, No Iterations 3
time step continuity errors : sum local = 8.5390817e-06, global = 1.1124492e-07, cumulative = 3.5371357e-05
ExecutionTime = 14.323896 s  ClockTime = 14 s

Time = 65s

smoothSolver:  Solving for Ux, Initial residual = 0.0011652955, Final residual = 3.9233355e-05, No Iterations 3
smoothSolver:  Solving for Uy, Initial residual = 0.0098550651, Final residual = 0.00033216092, No Iterations 3
smoothSolver:  Solving for Uz, Initial residual = 0.0013204751, Final residual = 4.5170878e-05, No Iterations 3
GAMG:  Solving for p, Initial residual = 0.012280165, Final residual = 7.1883781e-05, No Iterations 4
time step continuity errors : sum local = 5.1891649e-06, global = 4.2963805e-08, cumulative = 3.5414321e-05
ExecutionTime = 14.543339 s  ClockTime = 15 s

Time = 66s

smoothSolver:  Solving for Ux, Initial residual = 0.0011563598, Final residual = 3.8931007e-05, No Iterations 3
smoothSolver:  Solving for Uy, Initial residual = 0.0096990861, Final residual = 0.00032713897, No Iterations 3
smoothSolver:  Solving for Uz, Initial residual = 0.0013025835, Final residual = 4.4579099e-05, No Iterations 3
GAMG:  Solving for p, Initial residual = 0.012147938, Final residual = 0.00010412835, No Iterations 3
time step continuity errors : sum local = 7.5229759e-06, global = 1.1199671e-07, cumulative = 3.5526317e-05
ExecutionTime = 14.751636 s  ClockTime = 15 s

Time = 67s

smoothSolver:  Solving for Ux, Initial residual = 0.0011471807, Final residual = 3.8632859e-05, No Iterations 3
smoothSolver:  Solving for Uy, Initial residual = 0.0095429007, Final residual = 0.00032209337, No Iterations 3
smoothSolver:  Solving for Uz, Initial residual = 0.0012857361, Final residual = 4.4040169e-05, No Iterations 3
GAMG:  Solving for p, Initial residual = 0.011975005, Final residual = 0.00010721819, No Iterations 3
time step continuity errors : sum local = 7.7586797e-06, global = 1.126337e-07, cumulative = 3.5638951e-05
ExecutionTime = 14.958414 s  ClockTime = 15 s

Time = 68s

smoothSolver:  Solving for Ux, Initial residual = 0.0011384812, Final residual = 3.8346859e-05, No Iterations 3
smoothSolver:  Solving for Uy, Initial residual = 0.0093917848, Final residual = 0.00031721784, No Iterations 3
smoothSolver:  Solving for Uz, Initial residual = 0.0012691926, Final residual = 4.3506003e-05, No Iterations 3
GAMG:  Solving for p, Initial residual = 0.011819048, Final residual = 0.00011652069, No Iterations 3
time step continuity errors : sum local = 8.4448266e-06, global = 1.1265356e-07, cumulative = 3.5751605e-05
ExecutionTime = 15.161994 s  ClockTime = 15 s

Time = 69s

smoothSolver:  Solving for Ux, Initial residual = 0.0011303214, Final residual = 3.8075967e-05, No Iterations 3
smoothSolver:  Solving for Uy, Initial residual = 0.0092465772, Final residual = 0.00031251525, No Iterations 3
smoothSolver:  Solving for Uz, Initial residual = 0.00125284, Final residual = 4.2971438e-05, No Iterations 3
GAMG:  Solving for p, Initial residual = 0.011680197, Final residual = 7.2964979e-05, No Iterations 4
time step continuity errors : sum local = 5.2953782e-06, global = 4.2797911e-08, cumulative = 3.5794403e-05
ExecutionTime = 15.376889 s  ClockTime = 15 s

Time = 70s

smoothSolver:  Solving for Ux, Initial residual = 0.0011228535, Final residual = 3.7816626e-05, No Iterations 3
smoothSolver:  Solving for Uy, Initial residual = 0.0091081641, Final residual = 0.0003079914, No Iterations 3
smoothSolver:  Solving for Uz, Initial residual = 0.0012363458, Final residual = 4.2414685e-05, No Iterations 3
GAMG:  Solving for p, Initial residual = 0.011576985, Final residual = 0.00010144276, No Iterations 3
time step continuity errors : sum local = 7.3672609e-06, global = 1.0901324e-07, cumulative = 3.5903416e-05
ExecutionTime = 15.581631 s  ClockTime = 16 s

Time = 71s

smoothSolver:  Solving for Ux, Initial residual = 0.001114951, Final residual = 3.755708e-05, No Iterations 3
smoothSolver:  Solving for Uy, Initial residual = 0.0089669813, Final residual = 0.00030338576, No Iterations 3
smoothSolver:  Solving for Uz, Initial residual = 0.0012208649, Final residual = 4.1911221e-05, No Iterations 3
GAMG:  Solving for p, Initial residual = 0.011423356, Final residual = 0.00010057921, No Iterations 3
time step continuity errors : sum local = 7.3157369e-06, global = 1.0834061e-07, cumulative = 3.6011756e-05
ExecutionTime = 15.783265 s  ClockTime = 16 s

Time = 72s

smoothSolver:  Solving for Ux, Initial residual = 0.0011073523, Final residual = 3.7307968e-05, No Iterations 3
smoothSolver:  Solving for Uy, Initial residual = 0.0088276273, Final residual = 0.00029883088, No Iterations 3
smoothSolver:  Solving for Uz, Initial residual = 0.0012057272, Final residual = 4.1418767e-05, No Iterations 3
GAMG:  Solving for p, Initial residual = 0.011274604, Final residual = 0.00010606366, No Iterations 3
time step continuity errors : sum local = 7.7265104e-06, global = 1.0943807e-07, cumulative = 3.6121194e-05
ExecutionTime = 15.98615 s  ClockTime = 16 s

Time = 73s

smoothSolver:  Solving for Ux, Initial residual = 0.0011001128, Final residual = 3.7070726e-05, No Iterations 3
smoothSolver:  Solving for Uy, Initial residual = 0.0086926136, Final residual = 0.00029436234, No Iterations 3
smoothSolver:  Solving for Uz, Initial residual = 0.0011908641, Final residual = 4.0933187e-05, No Iterations 3
GAMG:  Solving for p, Initial residual = 0.011134609, Final residual = 6.9753199e-05, No Iterations 4
time step continuity errors : sum local = 5.0886515e-06, global = 4.0416814e-08, cumulative = 3.6161611e-05
ExecutionTime = 16.201254 s  ClockTime = 16 s

Time = 74s

smoothSolver:  Solving for Ux, Initial residual = 0.0010935445, Final residual = 3.6848256e-05, No Iterations 3
smoothSolver:  Solving for Uy, Initial residual = 0.0085635903, Final residual = 0.00029008626, No Iterations 3
smoothSolver:  Solving for Uz, Initial residual = 0.0011759586, Final residual = 4.043401e-05, No Iterations 3
GAMG:  Solving for p, Initial residual = 0.011025395, Final residual = 9.3489948e-05, No Iterations 3
time step continuity errors : sum local = 6.8257638e-06, global = 1.074438e-07, cumulative = 3.6269055e-05
ExecutionTime = 16.403264 s  ClockTime = 17 s

Time = 75s

smoothSolver:  Solving for Ux, Initial residual = 0.0010863425, Final residual = 3.6618315e-05, No Iterations 3
smoothSolver:  Solving for Uy, Initial residual = 0.0084330108, Final residual = 0.00028578047, No Iterations 3
smoothSolver:  Solving for Uz, Initial residual = 0.0011618787, Final residual = 3.9980869e-05, No Iterations 3
GAMG:  Solving for p, Initial residual = 0.010877859, Final residual = 9.4421761e-05, No Iterations 3
time step continuity errors : sum local = 6.9045096e-06, global = 1.0854843e-07, cumulative = 3.6377604e-05
ExecutionTime = 16.605647 s  ClockTime = 17 s

Time = 76s

smoothSolver:  Solving for Ux, Initial residual = 0.001079449, Final residual = 3.6397768e-05, No Iterations 3
smoothSolver:  Solving for Uy, Initial residual = 0.0083050961, Final residual = 0.00028156655, No Iterations 3
smoothSolver:  Solving for Uz, Initial residual = 0.0011480806, Final residual = 3.9535157e-05, No Iterations 3
GAMG:  Solving for p, Initial residual = 0.010742023, Final residual = 0.00010102891, No Iterations 3
time step continuity errors : sum local = 7.3989308e-06, global = 1.1064455e-07, cumulative = 3.6488248e-05
ExecutionTime = 16.809506 s  ClockTime = 17 s

Time = 77s

smoothSolver:  Solving for Ux, Initial residual = 0.0010729418, Final residual = 3.6189641e-05, No Iterations 3
smoothSolver:  Solving for Uy, Initial residual = 0.008180494, Final residual = 0.00027746496, No Iterations 3
smoothSolver:  Solving for Uz, Initial residual = 0.0011344718, Final residual = 3.9092022e-05, No Iterations 3
GAMG:  Solving for p, Initial residual = 0.010624808, Final residual = 6.8140589e-05, No Iterations 4
time step continuity errors : sum local = 4.9972835e-06, global = 4.0837893e-08, cumulative = 3.6529086e-05
ExecutionTime = 17.021545 s  ClockTime = 17 s

Time = 78s

smoothSolver:  Solving for Ux, Initial residual = 0.0010671443, Final residual = 3.5997235e-05, No Iterations 3
smoothSolver:  Solving for Uy, Initial residual = 0.0080599717, Final residual = 0.00027348254, No Iterations 3
smoothSolver:  Solving for Uz, Initial residual = 0.0011208361, Final residual = 3.8634623e-05, No Iterations 3
GAMG:  Solving for p, Initial residual = 0.010539178, Final residual = 8.9898284e-05, No Iterations 3
time step continuity errors : sum local = 6.5980053e-06, global = 1.0383668e-07, cumulative = 3.6632923e-05
ExecutionTime = 17.227154 s  ClockTime = 17 s

Time = 79s

smoothSolver:  Solving for Ux, Initial residual = 0.0010605539, Final residual = 3.579329e-05, No Iterations 3
smoothSolver:  Solving for Uy, Initial residual = 0.0079372503, Final residual = 0.00026944295, No Iterations 3
smoothSolver:  Solving for Uz, Initial residual = 0.0011079261, Final residual = 3.8216341e-05, No Iterations 3
GAMG:  Solving for p, Initial residual = 0.010408083, Final residual = 8.9786398e-05, No Iterations 3
time step continuity errors : sum local = 6.5995493e-06, global = 1.027164e-07, cumulative = 3.6735639e-05
ExecutionTime = 17.427043 s  ClockTime = 18 s

Time = 80s

smoothSolver:  Solving for Ux, Initial residual = 0.001054211, Final residual = 3.5596459e-05, No Iterations 3
smoothSolver:  Solving for Uy, Initial residual = 0.0078172155, Final residual = 0.00026548368, No Iterations 3
smoothSolver:  Solving for Uz, Initial residual = 0.0010952683, Final residual = 3.7802932e-05, No Iterations 3
GAMG:  Solving for p, Initial residual = 0.010280547, Final residual = 9.4774771e-05, No Iterations 3
time step continuity errors : sum local = 6.9763931e-06, global = 1.0416825e-07, cumulative = 3.6839807e-05
ExecutionTime = 17.632235 s  ClockTime = 18 s

Time = 81s

smoothSolver:  Solving for Ux, Initial residual = 0.0010482034, Final residual = 3.5411286e-05, No Iterations 3
smoothSolver:  Solving for Uy, Initial residual = 0.0077009131, Final residual = 0.00026163914, No Iterations 3
smoothSolver:  Solving for Uz, Initial residual = 0.0010827789, Final residual = 3.7392373e-05, No Iterations 3
GAMG:  Solving for p, Initial residual = 0.010165939, Final residual = 0.00010080485, No Iterations 3
time step continuity errors : sum local = 7.4303346e-06, global = 1.0512618e-07, cumulative = 3.6944933e-05
ExecutionTime = 17.832536 s  ClockTime = 18 s

Time = 82s

smoothSolver:  Solving for Ux, Initial residual = 0.0010424953, Final residual = 3.5236945e-05, No Iterations 3
smoothSolver:  Solving for Uy, Initial residual = 0.0075881437, Final residual = 0.00025789734, No Iterations 3
smoothSolver:  Solving for Uz, Initial residual = 0.0010704573, Final residual = 3.6985148e-05, No Iterations 3
GAMG:  Solving for p, Initial residual = 0.010063839, Final residual = 6.5399946e-05, No Iterations 4
time step continuity errors : sum local = 4.8265635e-06, global = 3.7631872e-08, cumulative = 3.6982565e-05
ExecutionTime = 18.050217 s  ClockTime = 18 s

Time = 83s

smoothSolver:  Solving for Ux, Initial residual = 0.0010373436, Final residual = 3.507612e-05, No Iterations 3
smoothSolver:  Solving for Uy, Initial residual = 0.0074789998, Final residual = 0.00025425057, No Iterations 3
smoothSolver:  Solving for Uz, Initial residual = 0.0010581636, Final residual = 3.6569939e-05, No Iterations 3
GAMG:  Solving for p, Initial residual = 0.0099826663, Final residual = 8.3199207e-05, No Iterations 3
time step continuity errors : sum local = 6.1443271e-06, global = 9.6540781e-08, cumulative = 3.7079106e-05
ExecutionTime = 18.252747 s  ClockTime = 18 s

Time = 84s

smoothSolver:  Solving for Ux, Initial residual = 0.0010312257, Final residual = 3.4896094e-05, No Iterations 3
smoothSolver:  Solving for Uy, Initial residual = 0.0073674564, Final residual = 0.00025053499, No Iterations 3
smoothSolver:  Solving for Uz, Initial residual = 0.0010464148, Final residual = 3.6192214e-05, No Iterations 3
GAMG:  Solving for p, Initial residual = 0.0098591793, Final residual = 8.0871027e-05, No Iterations 3
time step continuity errors : sum local = 5.9808362e-06, global = 9.4567366e-08, cumulative = 3.7173674e-05
ExecutionTime = 18.452929 s  ClockTime = 19 s

Time = 85s

smoothSolver:  Solving for Ux, Initial residual = 0.0010252856, Final residual = 3.4721351e-05, No Iterations 3
smoothSolver:  Solving for Uy, Initial residual = 0.007256308, Final residual = 0.00024685748, No Iterations 3
smoothSolver:  Solving for Uz, Initial residual = 0.0010348819, Final residual = 3.5822034e-05, No Iterations 3
GAMG:  Solving for p, Initial residual = 0.0097468536, Final residual = 8.4895978e-05, No Iterations 3
time step continuity errors : sum local = 6.2874973e-06, global = 9.7250979e-08, cumulative = 3.7270924e-05
ExecutionTime = 18.65573 s  ClockTime = 19 s

Time = 86s

smoothSolver:  Solving for Ux, Initial residual = 0.0010196975, Final residual = 3.4557471e-05, No Iterations 3
smoothSolver:  Solving for Uy, Initial residual = 0.0071475137, Final residual = 0.00024324991, No Iterations 3
smoothSolver:  Solving for Uz, Initial residual = 0.0010234854, Final residual = 3.5453672e-05, No Iterations 3
GAMG:  Solving for p, Initial residual = 0.0096508424, Final residual = 9.1643049e-05, No Iterations 3
time step continuity errors : sum local = 6.7963697e-06, global = 1.0049838e-07, cumulative = 3.7371423e-05
ExecutionTime = 18.859387 s  ClockTime = 19 s

Time = 87s

smoothSolver:  Solving for Ux, Initial residual = 0.0010144321, Final residual = 3.4404536e-05, No Iterations 3
smoothSolver:  Solving for Uy, Initial residual = 0.0070417639, Final residual = 0.00023972162, No Iterations 3
smoothSolver:  Solving for Uz, Initial residual = 0.0010122525, Final residual = 3.5086059e-05, No Iterations 3
GAMG:  Solving for p, Initial residual = 0.0095653852, Final residual = 6.1888966e-05, No Iterations 4
time step continuity errors : sum local = 4.595382e-06, global = 3.6987477e-08, cumulative = 3.740841e-05
ExecutionTime = 19.073723 s  ClockTime = 19 s

Time = 88s

smoothSolver:  Solving for Ux, Initial residual = 0.0010097818, Final residual = 3.426441e-05, No Iterations 3
smoothSolver:  Solving for Uy, Initial residual = 0.006940391, Final residual = 0.00023631813, No Iterations 3
smoothSolver:  Solving for Uz, Initial residual = 0.0010011528, Final residual = 3.4710013e-05, No Iterations 3
GAMG:  Solving for p, Initial residual = 0.0095029468, Final residual = 7.9784236e-05, No Iterations 3
time step continuity errors : sum local = 5.928125e-06, global = 9.3256187e-08, cumulative = 3.7501667e-05
ExecutionTime = 19.275307 s  ClockTime = 19 s

Time = 89s

smoothSolver:  Solving for Ux, Initial residual = 0.0010041247, Final residual = 3.4100377e-05, No Iterations 3
smoothSolver:  Solving for Uy, Initial residual = 0.0068381703, Final residual = 0.00023289777, No Iterations 3
smoothSolver:  Solving for Uz, Initial residual = 0.00099050863, Final residual = 3.4364886e-05, No Iterations 3
GAMG:  Solving for p, Initial residual = 0.0094029966, Final residual = 7.7975815e-05, No Iterations 3
time step continuity errors : sum local = 5.801438e-06, global = 9.1939577e-08, cumulative = 3.7593606e-05
ExecutionTime = 19.476715 s  ClockTime = 20 s

Time = 90s

smoothSolver:  Solving for Ux, Initial residual = 0.00099860478, Final residual = 3.3938225e-05, No Iterations 3
smoothSolver:  Solving for Uy, Initial residual = 0.00673863, Final residual = 0.00022958048, No Iterations 3
smoothSolver:  Solving for Uz, Initial residual = 0.00098009731, Final residual = 3.4025925e-05, No Iterations 3
GAMG:  Solving for p, Initial residual = 0.0093061791, Final residual = 8.116001e-05, No Iterations 3
time step continuity errors : sum local = 6.0464639e-06, global = 9.4595837e-08, cumulative = 3.7688202e-05
ExecutionTime = 19.678535 s  ClockTime = 20 s

Time = 91s

smoothSolver:  Solving for Ux, Initial residual = 0.0009933868, Final residual = 3.378353e-05, No Iterations 3
smoothSolver:  Solving for Uy, Initial residual = 0.0066423199, Final residual = 0.00022635484, No Iterations 3
smoothSolver:  Solving for Uz, Initial residual = 0.00096983203, Final residual = 3.3688919e-05, No Iterations 3
GAMG:  Solving for p, Initial residual = 0.0092154605, Final residual = 8.63822e-05, No Iterations 3
time step continuity errors : sum local = 6.4437926e-06, global = 9.8203793e-08, cumulative = 3.7786406e-05
ExecutionTime = 19.880039 s  ClockTime = 20 s

Time = 92s

smoothSolver:  Solving for Ux, Initial residual = 0.00098846581, Final residual = 3.363676e-05, No Iterations 3
smoothSolver:  Solving for Uy, Initial residual = 0.0065477905, Final residual = 0.00022320906, No Iterations 3
smoothSolver:  Solving for Uz, Initial residual = 0.00095967262, Final residual = 3.3353508e-05, No Iterations 3
GAMG:  Solving for p, Initial residual = 0.0091285633, Final residual = 9.0591366e-05, No Iterations 3
time step continuity errors : sum local = 6.7657684e-06, global = 1.0020998e-07, cumulative = 3.7886616e-05
ExecutionTime = 20.082886 s  ClockTime = 20 s

Time = 93s

smoothSolver:  Solving for Ux, Initial residual = 0.00098369539, Final residual = 3.3491696e-05, No Iterations 3
smoothSolver:  Solving for Uy, Initial residual = 0.0064548109, Final residual = 0.00022009091, No Iterations 3
smoothSolver:  Solving for Uz, Initial residual = 0.00094967588, Final residual = 3.3020904e-05, No Iterations 3
GAMG:  Solving for p, Initial residual = 0.0090517654, Final residual = 5.9174252e-05, No Iterations 4
time step continuity errors : sum local = 4.4242258e-06, global = 3.6385354e-08, cumulative = 3.7923001e-05
ExecutionTime = 20.296288 s  ClockTime = 20 s

Time = 94s

smoothSolver:  Solving for Ux, Initial residual = 0.00097942031, Final residual = 3.3354389e-05, No Iterations 3
smoothSolver:  Solving for Uy, Initial residual = 0.0063643154, Final residual = 0.0002170392, No Iterations 3
smoothSolver:  Solving for Uz, Initial residual = 0.00093985507, Final residual = 3.2684907e-05, No Iterations 3
GAMG:  Solving for p, Initial residual = 0.0089949618, Final residual = 7.2989619e-05, No Iterations 3
time step continuity errors : sum local = 5.4606176e-06, global = 8.7158358e-08, cumulative = 3.8010159e-05
ExecutionTime = 20.496787 s  ClockTime = 21 s

Time = 95s

smoothSolver:  Solving for Ux, Initial residual = 0.00097399693, Final residual = 3.318716e-05, No Iterations 3
smoothSolver:  Solving for Uy, Initial residual = 0.0062716581, Final residual = 0.0002139196, No Iterations 3
smoothSolver:  Solving for Uz, Initial residual = 0.00093032613, Final residual = 3.2374799e-05, No Iterations 3
GAMG:  Solving for p, Initial residual = 0.008895384, Final residual = 7.0220887e-05, No Iterations 3
time step continuity errors : sum local = 5.2602436e-06, global = 8.3328177e-08, cumulative = 3.8093488e-05
ExecutionTime = 20.703486 s  ClockTime = 21 s

Time = 96s

smoothSolver:  Solving for Ux, Initial residual = 0.00096870392, Final residual = 3.3022719e-05, No Iterations 3
smoothSolver:  Solving for Uy, Initial residual = 0.0061812936, Final residual = 0.00021084854, No Iterations 3
smoothSolver:  Solving for Uz, Initial residual = 0.00092094445, Final residual = 3.2068948e-05, No Iterations 3
GAMG:  Solving for p, Initial residual = 0.008801343, Final residual = 7.2958724e-05, No Iterations 3
time step continuity errors : sum local = 5.4725367e-06, global = 8.4703313e-08, cumulative = 3.8178191e-05
ExecutionTime = 20.915831 s  ClockTime = 21 s

Time = 97s

smoothSolver:  Solving for Ux, Initial residual = 0.00096377939, Final residual = 3.2868357e-05, No Iterations 3
smoothSolver:  Solving for Uy, Initial residual = 0.0060942521, Final residual = 0.00020788634, No Iterations 3
smoothSolver:  Solving for Uz, Initial residual = 0.00091164196, Final residual = 3.176482e-05, No Iterations 3
GAMG:  Solving for p, Initial residual = 0.00871948, Final residual = 7.8251783e-05, No Iterations 3
time step continuity errors : sum local = 5.8769377e-06, global = 8.9299996e-08, cumulative = 3.8267491e-05
ExecutionTime = 21.120498 s  ClockTime = 21 s

Time = 98s

smoothSolver:  Solving for Ux, Initial residual = 0.00095920531, Final residual = 3.2722188e-05, No Iterations 3
smoothSolver:  Solving for Uy, Initial residual = 0.006010492, Final residual = 0.00020501815, No Iterations 3
smoothSolver:  Solving for Uz, Initial residual = 0.00090245059, Final residual = 3.146214e-05, No Iterations 3
GAMG:  Solving for p, Initial residual = 0.0086491378, Final residual = 8.3392554e-05, No Iterations 3
time step continuity errors : sum local = 6.2702965e-06, global = 9.2800215e-08, cumulative = 3.8360291e-05
ExecutionTime = 21.324301 s  ClockTime = 21 s

Time = 99s

smoothSolver:  Solving for Ux, Initial residual = 0.00095477984, Final residual = 3.2578949e-05, No Iterations 3
smoothSolver:  Solving for Uy, Initial residual = 0.0059288313, Final residual = 0.00020221665, No Iterations 3
smoothSolver:  Solving for Uz, Initial residual = 0.00089343668, Final residual = 3.1162803e-05, No Iterations 3
GAMG:  Solving for p, Initial residual = 0.0085835657, Final residual = 8.5812563e-05, No Iterations 3
time step continuity errors : sum local = 6.459096e-06, global = 9.3590958e-08, cumulative = 3.8453882e-05
ExecutionTime = 21.528659 s  ClockTime = 22 s

Time = 100s

smoothSolver:  Solving for Ux, Initial residual = 0.00095030606, Final residual = 3.2432888e-05, No Iterations 3
smoothSolver:  Solving for Uy, Initial residual = 0.0058487133, Final residual = 0.00019945796, No Iterations 3
smoothSolver:  Solving for Uz, Initial residual = 0.00088463531, Final residual = 3.0868516e-05, No Iterations 3
GAMG:  Solving for p, Initial residual = 0.0085221284, Final residual = 8.4475921e-05, No Iterations 3
time step continuity errors : sum local = 6.364749e-06, global = 9.3017301e-08, cumulative = 3.8546899e-05
ExecutionTime = 21.730365 s  ClockTime = 22 s

Time = 101s

smoothSolver:  Solving for Ux, Initial residual = 0.00094572464, Final residual = 3.2281135e-05, No Iterations 3
smoothSolver:  Solving for Uy, Initial residual = 0.0057698344, Final residual = 0.00019672771, No Iterations 3
smoothSolver:  Solving for Uz, Initial residual = 0.00087601599, Final residual = 3.0581089e-05, No Iterations 3
GAMG:  Solving for p, Initial residual = 0.0084576923, Final residual = 8.0454164e-05, No Iterations 3
time step continuity errors : sum local = 6.0676459e-06, global = 9.0844188e-08, cumulative = 3.8637744e-05
ExecutionTime = 21.930124 s  ClockTime = 22 s

Time = 102s

smoothSolver:  Solving for Ux, Initial residual = 0.00094104287, Final residual = 3.2126503e-05, No Iterations 3
smoothSolver:  Solving for Uy, Initial residual = 0.005692577, Final residual = 0.00019406036, No Iterations 3
smoothSolver:  Solving for Uz, Initial residual = 0.00086754272, Final residual = 3.0299542e-05, No Iterations 3
GAMG:  Solving for p, Initial residual = 0.008387402, Final residual = 7.6094394e-05, No Iterations 3
time step continuity errors : sum local = 5.7446549e-06, global = 8.8067339e-08, cumulative = 3.8725811e-05
ExecutionTime = 22.133444 s  ClockTime = 22 s

Time = 103s

smoothSolver:  Solving for Ux, Initial residual = 0.00093637766, Final residual = 3.1972518e-05, No Iterations 3
smoothSolver:  Solving for Uy, Initial residual = 0.0056171278, Final residual = 0.00019146093, No Iterations 3
smoothSolver:  Solving for Uz, Initial residual = 0.00085917296, Final residual = 3.0021613e-05, No Iterations 3
GAMG:  Solving for p, Initial residual = 0.0083220377, Final residual = 7.3203625e-05, No Iterations 3
time step continuity errors : sum local = 5.5322964e-06, global = 8.5267852e-08, cumulative = 3.8811079e-05
ExecutionTime = 22.335335 s  ClockTime = 23 s

Time = 104s

smoothSolver:  Solving for Ux, Initial residual = 0.00093181579, Final residual = 3.1821361e-05, No Iterations 3
smoothSolver:  Solving for Uy, Initial residual = 0.0055441727, Final residual = 0.00018895361, No Iterations 3
smoothSolver:  Solving for Uz, Initial residual = 0.00085088756, Final residual = 2.9746583e-05, No Iterations 3
GAMG:  Solving for p, Initial residual = 0.0082601763, Final residual = 7.2010527e-05, No Iterations 3
time step continuity errors : sum local = 5.4481257e-06, global = 8.3251588e-08, cumulative = 3.889433e-05
ExecutionTime = 22.53796 s  ClockTime = 23 s

Time = 105s

smoothSolver:  Solving for Ux, Initial residual = 0.00092736217, Final residual = 3.1674157e-05, No Iterations 3
smoothSolver:  Solving for Uy, Initial residual = 0.0054739077, Final residual = 0.00018653458, No Iterations 3
smoothSolver:  Solving for Uz, Initial residual = 0.00084269961, Final residual = 2.9473428e-05, No Iterations 3
GAMG:  Solving for p, Initial residual = 0.0081977394, Final residual = 7.1918943e-05, No Iterations 3
time step continuity errors : sum local = 5.4472564e-06, global = 8.2851479e-08, cumulative = 3.8977182e-05
ExecutionTime = 22.740237 s  ClockTime = 23 s

Time = 106s

smoothSolver:  Solving for Ux, Initial residual = 0.00092298858, Final residual = 3.1529012e-05, No Iterations 3
smoothSolver:  Solving for Uy, Initial residual = 0.005406006, Final residual = 0.00018418655, No Iterations 3
smoothSolver:  Solving for Uz, Initial residual = 0.00083461294, Final residual = 2.9203531e-05, No Iterations 3
GAMG:  Solving for p, Initial residual = 0.0081400736, Final residual = 7.2207855e-05, No Iterations 3
time step continuity errors : sum local = 5.4752059e-06, global = 8.3315067e-08, cumulative = 3.9060497e-05
ExecutionTime = 22.941131 s  ClockTime = 23 s

Time = 107s

smoothSolver:  Solving for Ux, Initial residual = 0.00091863219, Final residual = 3.1384355e-05, No Iterations 3
smoothSolver:  Solving for Uy, Initial residual = 0.0053392649, Final residual = 0.00018188184, No Iterations 3
smoothSolver:  Solving for Uz, Initial residual = 0.00082665813, Final residual = 2.8938452e-05, No Iterations 3
GAMG:  Solving for p, Initial residual = 0.0080817708, Final residual = 7.2342144e-05, No Iterations 3
time step continuity errors : sum local = 5.491404e-06, global = 8.4259416e-08, cumulative = 3.9144756e-05
ExecutionTime = 23.145484 s  ClockTime = 23 s

Time = 108s

smoothSolver:  Solving for Ux, Initial residual = 0.00091425405, Final residual = 3.123965e-05, No Iterations 3
smoothSolver:  Solving for Uy, Initial residual = 0.0052734669, Final residual = 0.00017962676, No Iterations 3
smoothSolver:  Solving for Uz, Initial residual = 0.00081886195, Final residual = 2.8678507e-05, No Iterations 3
GAMG:  Solving for p, Initial residual = 0.008025204, Final residual = 7.206125e-05, No Iterations 3
time step continuity errors : sum local = 5.4759412e-06, global = 8.3448847e-08, cumulative = 3.9228205e-05
ExecutionTime = 23.346657 s  ClockTime = 24 s

Time = 109s

smoothSolver:  Solving for Ux, Initial residual = 0.0009098608, Final residual = 3.1094934e-05, No Iterations 3
smoothSolver:  Solving for Uy, Initial residual = 0.0052092552, Final residual = 0.00017740835, No Iterations 3
smoothSolver:  Solving for Uz, Initial residual = 0.00081120642, Final residual = 2.842295e-05, No Iterations 3
GAMG:  Solving for p, Initial residual = 0.0079652866, Final residual = 7.1191015e-05, No Iterations 3
time step continuity errors : sum local = 5.4155072e-06, global = 8.2493064e-08, cumulative = 3.9310698e-05
ExecutionTime = 23.549463 s  ClockTime = 24 s

Time = 110s

smoothSolver:  Solving for Ux, Initial residual = 0.00090547307, Final residual = 3.0950172e-05, No Iterations 3
smoothSolver:  Solving for Uy, Initial residual = 0.0051463003, Final residual = 0.00017523698, No Iterations 3
smoothSolver:  Solving for Uz, Initial residual = 0.0008036686, Final residual = 2.8170399e-05, No Iterations 3
GAMG:  Solving for p, Initial residual = 0.0079053685, Final residual = 7.0037111e-05, No Iterations 3
time step continuity errors : sum local = 5.333284e-06, global = 8.0746501e-08, cumulative = 3.9391445e-05
ExecutionTime = 23.781365 s  ClockTime = 24 s

Time = 111s

smoothSolver:  Solving for Ux, Initial residual = 0.00090112467, Final residual = 3.080703e-05, No Iterations 3
smoothSolver:  Solving for Uy, Initial residual = 0.0050844999, Final residual = 0.00017311183, No Iterations 3
smoothSolver:  Solving for Uz, Initial residual = 0.00079618213, Final residual = 2.7919603e-05, No Iterations 3
GAMG:  Solving for p, Initial residual = 0.0078485422, Final residual = 6.8842369e-05, No Iterations 3
time step continuity errors : sum local = 5.2477508e-06, global = 7.8694021e-08, cumulative = 3.9470139e-05
ExecutionTime = 23.991118 s  ClockTime = 24 s

Time = 112s

smoothSolver:  Solving for Ux, Initial residual = 0.00089683879, Final residual = 3.066519e-05, No Iterations 3
smoothSolver:  Solving for Uy, Initial residual = 0.0050240795, Final residual = 0.00017103547, No Iterations 3
smoothSolver:  Solving for Uz, Initial residual = 0.00078875415, Final residual = 2.7670333e-05, No Iterations 3
GAMG:  Solving for p, Initial residual = 0.0077917662, Final residual = 6.7652957e-05, No Iterations 3
time step continuity errors : sum local = 5.1624596e-06, global = 7.6293809e-08, cumulative = 3.9546433e-05
ExecutionTime = 24.194359 s  ClockTime = 24 s

Time = 113s

smoothSolver:  Solving for Ux, Initial residual = 0.00089259478, Final residual = 3.0525029e-05, No Iterations 3
smoothSolver:  Solving for Uy, Initial residual = 0.0049656136, Final residual = 0.0001690404, No Iterations 3
smoothSolver:  Solving for Uz, Initial residual = 0.00078141258, Final residual = 2.7423981e-05, No Iterations 3
GAMG:  Solving for p, Initial residual = 0.0077313765, Final residual = 6.6476556e-05, No Iterations 3
time step continuity errors : sum local = 5.0780141e-06, global = 7.4127799e-08, cumulative = 3.962056e-05
ExecutionTime = 24.396387 s  ClockTime = 25 s

Time = 114s

smoothSolver:  Solving for Ux, Initial residual = 0.00088836897, Final residual = 3.0387117e-05, No Iterations 3
smoothSolver:  Solving for Uy, Initial residual = 0.0049090671, Final residual = 0.00016712697, No Iterations 3
smoothSolver:  Solving for Uz, Initial residual = 0.00077417501, Final residual = 2.7181154e-05, No Iterations 3
GAMG:  Solving for p, Initial residual = 0.0076729631, Final residual = 6.54198e-05, No Iterations 3
time step continuity errors : sum local = 5.0024905e-06, global = 7.2631395e-08, cumulative = 3.9693192e-05
ExecutionTime = 24.599165 s  ClockTime = 25 s

Time = 115s

smoothSolver:  Solving for Ux, Initial residual = 0.00088415596, Final residual = 3.025068e-05, No Iterations 3
smoothSolver:  Solving for Uy, Initial residual = 0.0048535608, Final residual = 0.00016526858, No Iterations 3
smoothSolver:  Solving for Uz, Initial residual = 0.0007670431, Final residual = 2.6941309e-05, No Iterations 3
GAMG:  Solving for p, Initial residual = 0.007616872, Final residual = 6.4587967e-05, No Iterations 3
time step continuity errors : sum local = 4.9439984e-06, global = 7.1841827e-08, cumulative = 3.9765034e-05
ExecutionTime = 24.803832 s  ClockTime = 25 s

Time = 116s

smoothSolver:  Solving for Ux, Initial residual = 0.0008799442, Final residual = 3.0114866e-05, No Iterations 3
smoothSolver:  Solving for Uy, Initial residual = 0.0047996878, Final residual = 0.00016344995, No Iterations 3
smoothSolver:  Solving for Uz, Initial residual = 0.00076001305, Final residual = 2.6704416e-05, No Iterations 3
GAMG:  Solving for p, Initial residual = 0.0075635341, Final residual = 6.3987792e-05, No Iterations 3
time step continuity errors : sum local = 4.903101e-06, global = 7.14833e-08, cumulative = 3.9836517e-05
ExecutionTime = 25.005784 s  ClockTime = 25 s

Time = 117s

smoothSolver:  Solving for Ux, Initial residual = 0.00087572607, Final residual = 2.9978388e-05, No Iterations 3
smoothSolver:  Solving for Uy, Initial residual = 0.0047467148, Final residual = 0.00016166642, No Iterations 3
smoothSolver:  Solving for Uz, Initial residual = 0.00075306276, Final residual = 2.6470436e-05, No Iterations 3
GAMG:  Solving for p, Initial residual = 0.0075129315, Final residual = 6.3483637e-05, No Iterations 3
time step continuity errors : sum local = 4.8694256e-06, global = 7.1083109e-08, cumulative = 3.99076e-05
ExecutionTime = 25.207472 s  ClockTime = 25 s

Time = 118s

smoothSolver:  Solving for Ux, Initial residual = 0.00087152881, Final residual = 2.9842062e-05, No Iterations 3
smoothSolver:  Solving for Uy, Initial residual = 0.0046949341, Final residual = 0.00015990776, No Iterations 3
smoothSolver:  Solving for Uz, Initial residual = 0.00074618444, Final residual = 2.6238751e-05, No Iterations 3
GAMG:  Solving for p, Initial residual = 0.0074611595, Final residual = 6.3022336e-05, No Iterations 3
time step continuity errors : sum local = 4.8389335e-06, global = 7.0353666e-08, cumulative = 3.9977954e-05
ExecutionTime = 25.406778 s  ClockTime = 26 s

Time = 119s

smoothSolver:  Solving for Ux, Initial residual = 0.00086736277, Final residual = 2.970703e-05, No Iterations 3
smoothSolver:  Solving for Uy, Initial residual = 0.0046445151, Final residual = 0.00015819348, No Iterations 3
smoothSolver:  Solving for Uz, Initial residual = 0.00073938861, Final residual = 2.6009308e-05, No Iterations 3
GAMG:  Solving for p, Initial residual = 0.0074122537, Final residual = 6.2565781e-05, No Iterations 3
time step continuity errors : sum local = 4.8086805e-06, global = 6.9356399e-08, cumulative = 4.004731e-05
ExecutionTime = 25.611463 s  ClockTime = 26 s

Time = 120s

smoothSolver:  Solving for Ux, Initial residual = 0.00086323117, Final residual = 2.9573657e-05, No Iterations 3
smoothSolver:  Solving for Uy, Initial residual = 0.0045956073, Final residual = 0.00015654413, No Iterations 3
smoothSolver:  Solving for Uz, Initial residual = 0.00073267672, Final residual = 2.5782479e-05, No Iterations 3
GAMG:  Solving for p, Initial residual = 0.0073643038, Final residual = 6.2083573e-05, No Iterations 3
time step continuity errors : sum local = 4.7763234e-06, global = 6.8131547e-08, cumulative = 4.0115442e-05
ExecutionTime = 25.813727 s  ClockTime = 26 s

Time = 121s

smoothSolver:  Solving for Ux, Initial residual = 0.00085912836, Final residual = 2.9442298e-05, No Iterations 3
smoothSolver:  Solving for Uy, Initial residual = 0.0045488815, Final residual = 0.00015496041, No Iterations 3
smoothSolver:  Solving for Uz, Initial residual = 0.00072605439, Final residual = 2.5558847e-05, No Iterations 3
GAMG:  Solving for p, Initial residual = 0.0073168685, Final residual = 6.1538186e-05, No Iterations 3
time step continuity errors : sum local = 4.7390236e-06, global = 6.6755773e-08, cumulative = 4.0182197e-05
ExecutionTime = 26.017686 s  ClockTime = 26 s

Time = 122s

smoothSolver:  Solving for Ux, Initial residual = 0.00085504545, Final residual = 2.9312154e-05, No Iterations 3
smoothSolver:  Solving for Uy, Initial residual = 0.0045041161, Final residual = 0.00015344187, No Iterations 3
smoothSolver:  Solving for Uz, Initial residual = 0.00071952757, Final residual = 2.5337982e-05, No Iterations 3
GAMG:  Solving for p, Initial residual = 0.0072677969, Final residual = 6.094799e-05, No Iterations 3
time step continuity errors : sum local = 4.6982033e-06, global = 6.5424866e-08, cumulative = 4.0247622e-05
ExecutionTime = 26.218235 s  ClockTime = 26 s

Time = 123s

smoothSolver:  Solving for Ux, Initial residual = 0.00085098427, Final residual = 2.9182915e-05, No Iterations 3
smoothSolver:  Solving for Uy, Initial residual = 0.0044611268, Final residual = 0.00015196766, No Iterations 3
smoothSolver:  Solving for Uz, Initial residual = 0.0007130992, Final residual = 2.5119539e-05, No Iterations 3
GAMG:  Solving for p, Initial residual = 0.0072190876, Final residual = 6.0334626e-05, No Iterations 3
time step continuity errors : sum local = 4.6555087e-06, global = 6.4282319e-08, cumulative = 4.0311905e-05
ExecutionTime = 26.417322 s  ClockTime = 27 s

Time = 124s

smoothSolver:  Solving for Ux, Initial residual = 0.00084695885, Final residual = 2.9053882e-05, No Iterations 3
smoothSolver:  Solving for Uy, Initial residual = 0.0044193125, Final residual = 0.00015052356, No Iterations 3
smoothSolver:  Solving for Uz, Initial residual = 0.00070676014, Final residual = 2.490326e-05, No Iterations 3
GAMG:  Solving for p, Initial residual = 0.0071677388, Final residual = 5.9697367e-05, No Iterations 3
time step continuity errors : sum local = 4.6108955e-06, global = 6.3376223e-08, cumulative = 4.0375281e-05
ExecutionTime = 26.619323 s  ClockTime = 27 s

Time = 125s

smoothSolver:  Solving for Ux, Initial residual = 0.00084296942, Final residual = 2.8926189e-05, No Iterations 3
smoothSolver:  Solving for Uy, Initial residual = 0.0043783657, Final residual = 0.00014909954, No Iterations 3
smoothSolver:  Solving for Uz, Initial residual = 0.00070049896, Final residual = 2.4689557e-05, No Iterations 3
GAMG:  Solving for p, Initial residual = 0.0071111709, Final residual = 5.9048212e-05, No Iterations 3
time step continuity errors : sum local = 4.5652466e-06, global = 6.2852445e-08, cumulative = 4.0438133e-05
ExecutionTime = 26.822462 s  ClockTime = 27 s

Time = 126s

smoothSolver:  Solving for Ux, Initial residual = 0.00083900004, Final residual = 2.8798719e-05, No Iterations 3
smoothSolver:  Solving for Uy, Initial residual = 0.0043379821, Final residual = 0.00014769049, No Iterations 3
smoothSolver:  Solving for Uz, Initial residual = 0.00069430902, Final residual = 2.4478283e-05, No Iterations 3
GAMG:  Solving for p, Initial residual = 0.00705522, Final residual = 5.8423167e-05, No Iterations 3
time step continuity errors : sum local = 4.5213359e-06, global = 6.2435985e-08, cumulative = 4.0500569e-05
ExecutionTime = 27.025569 s  ClockTime = 27 s

Time = 127s

smoothSolver:  Solving for Ux, Initial residual = 0.00083503154, Final residual = 2.8671637e-05, No Iterations 3
smoothSolver:  Solving for Uy, Initial residual = 0.0042982755, Final residual = 0.00014629466, No Iterations 3
smoothSolver:  Solving for Uz, Initial residual = 0.00068818924, Final residual = 2.4269522e-05, No Iterations 3
GAMG:  Solving for p, Initial residual = 0.0070018602, Final residual = 5.7885779e-05, No Iterations 3
time step continuity errors : sum local = 4.4841054e-06, global = 6.2013257e-08, cumulative = 4.0562582e-05
ExecutionTime = 27.226326 s  ClockTime = 27 s

Time = 128s

smoothSolver:  Solving for Ux, Initial residual = 0.00083106277, Final residual = 2.8545276e-05, No Iterations 3
smoothSolver:  Solving for Uy, Initial residual = 0.004259737, Final residual = 0.00014492685, No Iterations 3
smoothSolver:  Solving for Uz, Initial residual = 0.00068213915, Final residual = 2.4063489e-05, No Iterations 3
GAMG:  Solving for p, Initial residual = 0.0069535634, Final residual = 5.7457226e-05, No Iterations 3
time step continuity errors : sum local = 4.455207e-06, global = 6.185141e-08, cumulative = 4.0624434e-05
ExecutionTime = 27.428639 s  ClockTime = 28 s

Time = 129s

smoothSolver:  Solving for Ux, Initial residual = 0.00082711079, Final residual = 2.8418656e-05, No Iterations 3
smoothSolver:  Solving for Uy, Initial residual = 0.004222267, Final residual = 0.00014360336, No Iterations 3
smoothSolver:  Solving for Uz, Initial residual = 0.00067616702, Final residual = 2.3859934e-05, No Iterations 3
GAMG:  Solving for p, Initial residual = 0.0069065592, Final residual = 5.7039096e-05, No Iterations 3
time step continuity errors : sum local = 4.427004e-06, global = 6.1605668e-08, cumulative = 4.068604e-05
ExecutionTime = 27.631578 s  ClockTime = 28 s

Time = 130s

smoothSolver:  Solving for Ux, Initial residual = 0.00082316301, Final residual = 2.8292981e-05, No Iterations 3
smoothSolver:  Solving for Uy, Initial residual = 0.004186305, Final residual = 0.00014232823, No Iterations 3
[...]
GAMG:  Solving for p, Initial residual = 1.0623756e-05, Final residual = 8.2091896e-08, No Iterations 2
time step continuity errors : sum local = 7.2877125e-09, global = -3.5281018e-10, cumulative = 4.4900358e-05
ExecutionTime = 212.89691 s  ClockTime = 216 s

Time = 1080s

smoothSolver:  Solving for Ux, Initial residual = 2.011198e-06, Final residual = 7.3724424e-08, No Iterations 3
smoothSolver:  Solving for Uy, Initial residual = 1.1690576e-05, Final residual = 4.1503669e-07, No Iterations 3
smoothSolver:  Solving for Uz, Initial residual = 5.3592792e-07, Final residual = 1.9061079e-08, No Iterations 3
GAMG:  Solving for p, Initial residual = 1.0522673e-05, Final residual = 8.1322216e-08, No Iterations 2
time step continuity errors : sum local = 7.2193755e-09, global = -3.4955405e-10, cumulative = 4.4900008e-05
ExecutionTime = 213.08562 s  ClockTime = 216 s

Time = 1081s

smoothSolver:  Solving for Ux, Initial residual = 1.9914347e-06, Final residual = 7.2978204e-08, No Iterations 3
smoothSolver:  Solving for Uy, Initial residual = 1.1626621e-05, Final residual = 4.127435e-07, No Iterations 3
smoothSolver:  Solving for Uz, Initial residual = 5.2972264e-07, Final residual = 1.8835282e-08, No Iterations 3
GAMG:  Solving for p, Initial residual = 1.0422792e-05, Final residual = 8.0558439e-08, No Iterations 2
time step continuity errors : sum local = 7.1515626e-09, global = -3.462996e-10, cumulative = 4.4899662e-05
ExecutionTime = 213.27526 s  ClockTime = 216 s

Time = 1082s

smoothSolver:  Solving for Ux, Initial residual = 1.9719331e-06, Final residual = 7.2241096e-08, No Iterations 3
smoothSolver:  Solving for Uy, Initial residual = 1.156325e-05, Final residual = 4.1047685e-07, No Iterations 3
smoothSolver:  Solving for Uz, Initial residual = 5.2361011e-07, Final residual = 1.861306e-08, No Iterations 3
GAMG:  Solving for p, Initial residual = 1.032406e-05, Final residual = 7.9794085e-08, No Iterations 2
time step continuity errors : sum local = 7.0836988e-09, global = -3.4303435e-10, cumulative = 4.4899319e-05
ExecutionTime = 213.46491 s  ClockTime = 216 s

Time = 1083s

smoothSolver:  Solving for Ux, Initial residual = 1.9526925e-06, Final residual = 7.1513139e-08, No Iterations 3
smoothSolver:  Solving for Uy, Initial residual = 1.1500396e-05, Final residual = 4.0822924e-07, No Iterations 3
smoothSolver:  Solving for Uz, Initial residual = 5.1758787e-07, Final residual = 1.8394393e-08, No Iterations 3
GAMG:  Solving for p, Initial residual = 1.0226551e-05, Final residual = 7.9038502e-08, No Iterations 2
time step continuity errors : sum local = 7.0166139e-09, global = -3.3980779e-10, cumulative = 4.4898979e-05
ExecutionTime = 213.65333 s  ClockTime = 216 s

Time = 1084s

smoothSolver:  Solving for Ux, Initial residual = 1.9337047e-06, Final residual = 7.0796087e-08, No Iterations 3
smoothSolver:  Solving for Uy, Initial residual = 1.1437869e-05, Final residual = 4.0601796e-07, No Iterations 3
smoothSolver:  Solving for Uz, Initial residual = 5.1166241e-07, Final residual = 1.8179181e-08, No Iterations 3
GAMG:  Solving for p, Initial residual = 1.0130241e-05, Final residual = 7.8290874e-08, No Iterations 2
time step continuity errors : sum local = 6.9502354e-09, global = -3.3662047e-10, cumulative = 4.4898643e-05
ExecutionTime = 213.84552 s  ClockTime = 217 s

Time = 1085s

smoothSolver:  Solving for Ux, Initial residual = 1.9149463e-06, Final residual = 7.0088267e-08, No Iterations 3
smoothSolver:  Solving for Uy, Initial residual = 1.1376099e-05, Final residual = 4.0384692e-07, No Iterations 3
smoothSolver:  Solving for Uz, Initial residual = 5.0582488e-07, Final residual = 1.7967204e-08, No Iterations 3
GAMG:  Solving for p, Initial residual = 1.0035112e-05, Final residual = 7.7554009e-08, No Iterations 2
time step continuity errors : sum local = 6.8848127e-09, global = -3.3348579e-10, cumulative = 4.4898309e-05
ExecutionTime = 214.03644 s  ClockTime = 217 s

Time = 1086s

smoothSolver:  Solving for Ux, Initial residual = 1.8964396e-06, Final residual = 6.9389806e-08, No Iterations 3
smoothSolver:  Solving for Uy, Initial residual = 1.1314967e-05, Final residual = 4.0170841e-07, No Iterations 3
smoothSolver:  Solving for Uz, Initial residual = 5.0007333e-07, Final residual = 1.7758613e-08, No Iterations 3
GAMG:  Solving for p, Initial residual = 9.9410715e-06, Final residual = 7.6828295e-08, No Iterations 2
time step continuity errors : sum local = 6.8203801e-09, global = -3.3040624e-10, cumulative = 4.4897979e-05
ExecutionTime = 214.22562 s  ClockTime = 217 s

Time = 1087s

smoothSolver:  Solving for Ux, Initial residual = 1.8781805e-06, Final residual = 6.8700038e-08, No Iterations 3
smoothSolver:  Solving for Uy, Initial residual = 1.1254431e-05, Final residual = 3.9960329e-07, No Iterations 3
smoothSolver:  Solving for Uz, Initial residual = 4.9440466e-07, Final residual = 1.7553137e-08, No Iterations 3
GAMG:  Solving for p, Initial residual = 9.8482929e-06, Final residual = 7.6114466e-08, No Iterations 2
time step continuity errors : sum local = 6.7570028e-09, global = -3.2737486e-10, cumulative = 4.4897651e-05
ExecutionTime = 214.41309 s  ClockTime = 217 s

Time = 1088s

smoothSolver:  Solving for Ux, Initial residual = 1.8601639e-06, Final residual = 6.8020113e-08, No Iterations 3
smoothSolver:  Solving for Uy, Initial residual = 1.1194622e-05, Final residual = 3.9753605e-07, No Iterations 3
smoothSolver:  Solving for Uz, Initial residual = 4.8882472e-07, Final residual = 1.7350906e-08, No Iterations 3
GAMG:  Solving for p, Initial residual = 9.7565562e-06, Final residual = 7.5411278e-08, No Iterations 2
time step continuity errors : sum local = 6.6945704e-09, global = -3.2437818e-10, cumulative = 4.4897327e-05
ExecutionTime = 214.60221 s  ClockTime = 217 s

Time = 1089s

smoothSolver:  Solving for Ux, Initial residual = 1.8424016e-06, Final residual = 6.7348561e-08, No Iterations 3
smoothSolver:  Solving for Uy, Initial residual = 1.1135514e-05, Final residual = 3.9551123e-07, No Iterations 3
smoothSolver:  Solving for Uz, Initial residual = 4.8332872e-07, Final residual = 1.7152143e-08, No Iterations 3
GAMG:  Solving for p, Initial residual = 9.666016e-06, Final residual = 7.4715922e-08, No Iterations 2
time step continuity errors : sum local = 6.6328334e-09, global = -3.2140256e-10, cumulative = 4.4897005e-05
ExecutionTime = 214.7915 s  ClockTime = 217 s

Time = 1090s

smoothSolver:  Solving for Ux, Initial residual = 1.8248944e-06, Final residual = 6.6686097e-08, No Iterations 3
smoothSolver:  Solving for Uy, Initial residual = 1.107692e-05, Final residual = 3.935319e-07, No Iterations 3
smoothSolver:  Solving for Uz, Initial residual = 4.7792138e-07, Final residual = 1.6956483e-08, No Iterations 3
GAMG:  Solving for p, Initial residual = 9.5766261e-06, Final residual = 7.402749e-08, No Iterations 2
time step continuity errors : sum local = 6.5717114e-09, global = -3.1844007e-10, cumulative = 4.4896687e-05
ExecutionTime = 214.98023 s  ClockTime = 218 s

Time = 1091s

smoothSolver:  Solving for Ux, Initial residual = 1.8076166e-06, Final residual = 6.6032543e-08, No Iterations 3
smoothSolver:  Solving for Uy, Initial residual = 1.1019113e-05, Final residual = 3.9157428e-07, No Iterations 3
smoothSolver:  Solving for Uz, Initial residual = 4.7259788e-07, Final residual = 1.6763811e-08, No Iterations 3
GAMG:  Solving for p, Initial residual = 9.4883926e-06, Final residual = 7.3346392e-08, No Iterations 2
time step continuity errors : sum local = 6.5112407e-09, global = -3.1549192e-10, cumulative = 4.4896372e-05
ExecutionTime = 215.17036 s  ClockTime = 218 s

Time = 1092s

smoothSolver:  Solving for Ux, Initial residual = 1.7905996e-06, Final residual = 6.5386696e-08, No Iterations 3
smoothSolver:  Solving for Uy, Initial residual = 1.0961823e-05, Final residual = 3.8963258e-07, No Iterations 3
smoothSolver:  Solving for Uz, Initial residual = 4.6734498e-07, Final residual = 1.6574045e-08, No Iterations 3
GAMG:  Solving for p, Initial residual = 9.4012363e-06, Final residual = 7.2674109e-08, No Iterations 2
time step continuity errors : sum local = 6.4515526e-09, global = -3.1256558e-10, cumulative = 4.4896059e-05
ExecutionTime = 215.35919 s  ClockTime = 218 s

Time = 1093s

smoothSolver:  Solving for Ux, Initial residual = 1.7738105e-06, Final residual = 6.4748611e-08, No Iterations 3
smoothSolver:  Solving for Uy, Initial residual = 1.0905148e-05, Final residual = 3.8770829e-07, No Iterations 3
smoothSolver:  Solving for Uz, Initial residual = 4.6216497e-07, Final residual = 1.6387371e-08, No Iterations 3
GAMG:  Solving for p, Initial residual = 9.3151089e-06, Final residual = 7.2010684e-08, No Iterations 2
time step continuity errors : sum local = 6.3926511e-09, global = -3.0967055e-10, cumulative = 4.4895749e-05
ExecutionTime = 215.54895 s  ClockTime = 218 s

Time = 1094s

smoothSolver:  Solving for Ux, Initial residual = 1.7572397e-06, Final residual = 6.4117968e-08, No Iterations 3
smoothSolver:  Solving for Uy, Initial residual = 1.0848995e-05, Final residual = 3.8581368e-07, No Iterations 3
smoothSolver:  Solving for Uz, Initial residual = 4.5706216e-07, Final residual = 1.6203795e-08, No Iterations 3
GAMG:  Solving for p, Initial residual = 9.2298669e-06, Final residual = 7.1357277e-08, No Iterations 2
time step continuity errors : sum local = 6.3346392e-09, global = -3.0681531e-10, cumulative = 4.4895442e-05
ExecutionTime = 215.73795 s  ClockTime = 218 s

Time = 1095s

smoothSolver:  Solving for Ux, Initial residual = 1.7408921e-06, Final residual = 6.3494901e-08, No Iterations 3
smoothSolver:  Solving for Uy, Initial residual = 1.0793444e-05, Final residual = 3.8392667e-07, No Iterations 3
smoothSolver:  Solving for Uz, Initial residual = 4.5203194e-07, Final residual = 1.6023155e-08, No Iterations 3
GAMG:  Solving for p, Initial residual = 9.1456679e-06, Final residual = 7.0712663e-08, No Iterations 2
time step continuity errors : sum local = 6.277408e-09, global = -3.0400558e-10, cumulative = 4.4895138e-05
ExecutionTime = 215.92561 s  ClockTime = 219 s

Time = 1096s

smoothSolver:  Solving for Ux, Initial residual = 1.7247334e-06, Final residual = 6.2880931e-08, No Iterations 3
smoothSolver:  Solving for Uy, Initial residual = 1.0738493e-05, Final residual = 3.8206756e-07, No Iterations 3
smoothSolver:  Solving for Uz, Initial residual = 4.4707905e-07, Final residual = 1.5845149e-08, No Iterations 3
GAMG:  Solving for p, Initial residual = 9.0625937e-06, Final residual = 7.0075835e-08, No Iterations 2
time step continuity errors : sum local = 6.2208681e-09, global = -3.0124031e-10, cumulative = 4.4894837e-05
ExecutionTime = 216.11754 s  ClockTime = 219 s

Time = 1097s

smoothSolver:  Solving for Ux, Initial residual = 1.7087877e-06, Final residual = 6.2274406e-08, No Iterations 3
smoothSolver:  Solving for Uy, Initial residual = 1.068396e-05, Final residual = 3.8021826e-07, No Iterations 3
smoothSolver:  Solving for Uz, Initial residual = 4.4219792e-07, Final residual = 1.5669842e-08, No Iterations 3
GAMG:  Solving for p, Initial residual = 8.9805861e-06, Final residual = 6.9446875e-08, No Iterations 2
time step continuity errors : sum local = 6.165027e-09, global = -2.9851247e-10, cumulative = 4.4894539e-05
ExecutionTime = 216.3101 s  ClockTime = 219 s

Time = 1098s

smoothSolver:  Solving for Ux, Initial residual = 1.6930588e-06, Final residual = 6.1676547e-08, No Iterations 3
smoothSolver:  Solving for Uy, Initial residual = 1.0629958e-05, Final residual = 3.7838346e-07, No Iterations 3
smoothSolver:  Solving for Uz, Initial residual = 4.3738747e-07, Final residual = 1.5497049e-08, No Iterations 3
GAMG:  Solving for p, Initial residual = 8.8994804e-06, Final residual = 6.882415e-08, No Iterations 2
time step continuity errors : sum local = 6.1097395e-09, global = -2.958106e-10, cumulative = 4.4894243e-05
ExecutionTime = 216.50058 s  ClockTime = 219 s

Time = 1099s

smoothSolver:  Solving for Ux, Initial residual = 1.6775163e-06, Final residual = 6.1086053e-08, No Iterations 3
smoothSolver:  Solving for Uy, Initial residual = 1.0576346e-05, Final residual = 3.7655318e-07, No Iterations 3
smoothSolver:  Solving for Uz, Initial residual = 4.3264469e-07, Final residual = 1.5327059e-08, No Iterations 3
GAMG:  Solving for p, Initial residual = 8.8192765e-06, Final residual = 6.820714e-08, No Iterations 2
time step continuity errors : sum local = 6.0549595e-09, global = -2.9312806e-10, cumulative = 4.489395e-05
ExecutionTime = 216.69036 s  ClockTime = 219 s

Time = 1100s

smoothSolver:  Solving for Ux, Initial residual = 1.6621844e-06, Final residual = 6.0502787e-08, No Iterations 3
smoothSolver:  Solving for Uy, Initial residual = 1.0523275e-05, Final residual = 3.7473994e-07, No Iterations 3
smoothSolver:  Solving for Uz, Initial residual = 4.2796665e-07, Final residual = 1.5159895e-08, No Iterations 3
GAMG:  Solving for p, Initial residual = 8.7400271e-06, Final residual = 6.759272e-08, No Iterations 2
time step continuity errors : sum local = 6.0004097e-09, global = -2.9043102e-10, cumulative = 4.4893659e-05
ExecutionTime = 216.87935 s  ClockTime = 220 s

Time = 1101s

smoothSolver:  Solving for Ux, Initial residual = 1.6470576e-06, Final residual = 5.9927087e-08, No Iterations 3
smoothSolver:  Solving for Uy, Initial residual = 1.047081e-05, Final residual = 3.7295519e-07, No Iterations 3
smoothSolver:  Solving for Uz, Initial residual = 4.2336198e-07, Final residual = 1.499545e-08, No Iterations 3
GAMG:  Solving for p, Initial residual = 8.6616586e-06, Final residual = 6.7004102e-08, No Iterations 2
time step continuity errors : sum local = 5.9481505e-09, global = -2.8795727e-10, cumulative = 4.4893371e-05
ExecutionTime = 217.06977 s  ClockTime = 220 s

Time = 1102s

smoothSolver:  Solving for Ux, Initial residual = 1.6321102e-06, Final residual = 5.9359435e-08, No Iterations 3
smoothSolver:  Solving for Uy, Initial residual = 1.0419011e-05, Final residual = 3.7119778e-07, No Iterations 3
smoothSolver:  Solving for Uz, Initial residual = 4.1882282e-07, Final residual = 1.4833732e-08, No Iterations 3
GAMG:  Solving for p, Initial residual = 8.5841758e-06, Final residual = 6.641808e-08, No Iterations 2
time step continuity errors : sum local = 5.8961219e-09, global = -2.854639e-10, cumulative = 4.4893086e-05
ExecutionTime = 217.25824 s  ClockTime = 220 s

Time = 1103s

smoothSolver:  Solving for Ux, Initial residual = 1.6173661e-06, Final residual = 5.8800245e-08, No Iterations 3
smoothSolver:  Solving for Uy, Initial residual = 1.0367693e-05, Final residual = 3.6946385e-07, No Iterations 3
smoothSolver:  Solving for Uz, Initial residual = 4.1435053e-07, Final residual = 1.4674776e-08, No Iterations 3
GAMG:  Solving for p, Initial residual = 8.5074683e-06, Final residual = 6.5839154e-08, No Iterations 2
time step continuity errors : sum local = 5.8447234e-09, global = -2.8300625e-10, cumulative = 4.4892803e-05
ExecutionTime = 217.447 s  ClockTime = 220 s

Time = 1104s

smoothSolver:  Solving for Ux, Initial residual = 1.602809e-06, Final residual = 5.8248554e-08, No Iterations 3
smoothSolver:  Solving for Uy, Initial residual = 1.0316901e-05, Final residual = 3.6776917e-07, No Iterations 3
smoothSolver:  Solving for Uz, Initial residual = 4.0994545e-07, Final residual = 1.4518189e-08, No Iterations 3
GAMG:  Solving for p, Initial residual = 8.4315545e-06, Final residual = 6.5265148e-08, No Iterations 2
time step continuity errors : sum local = 5.7937618e-09, global = -2.8059038e-10, cumulative = 4.4892522e-05
ExecutionTime = 217.6356 s  ClockTime = 220 s

Time = 1105s

smoothSolver:  Solving for Ux, Initial residual = 1.5884529e-06, Final residual = 5.7704407e-08, No Iterations 3
smoothSolver:  Solving for Uy, Initial residual = 1.0266336e-05, Final residual = 3.6610936e-07, No Iterations 3
smoothSolver:  Solving for Uz, Initial residual = 4.0560602e-07, Final residual = 1.4363875e-08, No Iterations 3
GAMG:  Solving for p, Initial residual = 8.3566227e-06, Final residual = 6.4694923e-08, No Iterations 2
time step continuity errors : sum local = 5.7431361e-09, global = -2.7821304e-10, cumulative = 4.4892244e-05
ExecutionTime = 217.82746 s  ClockTime = 221 s

Time = 1106s

smoothSolver:  Solving for Ux, Initial residual = 1.5742783e-06, Final residual = 5.7166677e-08, No Iterations 3
smoothSolver:  Solving for Uy, Initial residual = 1.0216169e-05, Final residual = 3.6448029e-07, No Iterations 3
smoothSolver:  Solving for Uz, Initial residual = 4.0132833e-07, Final residual = 1.4211741e-08, No Iterations 3
GAMG:  Solving for p, Initial residual = 8.2826596e-06, Final residual = 6.4129654e-08, No Iterations 2
time step continuity errors : sum local = 5.6929503e-09, global = -2.7586934e-10, cumulative = 4.4891968e-05
ExecutionTime = 218.01781 s  ClockTime = 221 s

Time = 1107s

smoothSolver:  Solving for Ux, Initial residual = 1.5602793e-06, Final residual = 5.6636253e-08, No Iterations 3
smoothSolver:  Solving for Uy, Initial residual = 1.0166359e-05, Final residual = 3.6288897e-07, No Iterations 3
smoothSolver:  Solving for Uz, Initial residual = 3.9711197e-07, Final residual = 1.4061734e-08, No Iterations 3
GAMG:  Solving for p, Initial residual = 8.2096409e-06, Final residual = 6.3568683e-08, No Iterations 2
time step continuity errors : sum local = 5.6431464e-09, global = -2.7355744e-10, cumulative = 4.4891695e-05
ExecutionTime = 218.20665 s  ClockTime = 221 s

Time = 1108s

smoothSolver:  Solving for Ux, Initial residual = 1.5464453e-06, Final residual = 5.6113249e-08, No Iterations 3
smoothSolver:  Solving for Uy, Initial residual = 1.0116882e-05, Final residual = 3.6131833e-07, No Iterations 3
smoothSolver:  Solving for Uz, Initial residual = 3.9295346e-07, Final residual = 1.3913822e-08, No Iterations 3
GAMG:  Solving for p, Initial residual = 8.1375035e-06, Final residual = 6.3015361e-08, No Iterations 2
time step continuity errors : sum local = 5.5940216e-09, global = -2.7129208e-10, cumulative = 4.4891423e-05
ExecutionTime = 218.39807 s  ClockTime = 221 s

Time = 1109s

smoothSolver:  Solving for Ux, Initial residual = 1.5327785e-06, Final residual = 5.5597697e-08, No Iterations 3
smoothSolver:  Solving for Uy, Initial residual = 1.006802e-05, Final residual = 3.5976419e-07, No Iterations 3
smoothSolver:  Solving for Uz, Initial residual = 3.888535e-07, Final residual = 1.3767827e-08, No Iterations 3
GAMG:  Solving for p, Initial residual = 8.0661901e-06, Final residual = 6.2474379e-08, No Iterations 2
time step continuity errors : sum local = 5.5459924e-09, global = -2.6926126e-10, cumulative = 4.4891154e-05
ExecutionTime = 218.58926 s  ClockTime = 221 s

Time = 1110s

smoothSolver:  Solving for Ux, Initial residual = 1.5192703e-06, Final residual = 5.5088957e-08, No Iterations 3
smoothSolver:  Solving for Uy, Initial residual = 1.0019846e-05, Final residual = 3.5822698e-07, No Iterations 3
smoothSolver:  Solving for Uz, Initial residual = 3.8481543e-07, Final residual = 1.3623935e-08, No Iterations 3
GAMG:  Solving for p, Initial residual = 7.9956598e-06, Final residual = 6.1929441e-08, No Iterations 2
time step continuity errors : sum local = 5.4976121e-09, global = -2.6716366e-10, cumulative = 4.4890887e-05
ExecutionTime = 218.77885 s  ClockTime = 222 s

Time = 1111s

smoothSolver:  Solving for Ux, Initial residual = 1.5059104e-06, Final residual = 5.4587454e-08, No Iterations 3
smoothSolver:  Solving for Uy, Initial residual = 9.9722645e-06, Final residual = 3.5670312e-07, No Iterations 3
smoothSolver:  Solving for Uz, Initial residual = 3.8083435e-07, Final residual = 1.348207e-08, No Iterations 3
GAMG:  Solving for p, Initial residual = 7.9259058e-06, Final residual = 6.1378354e-08, No Iterations 2
time step continuity errors : sum local = 5.4486861e-09, global = -2.6495067e-10, cumulative = 4.4890622e-05
ExecutionTime = 218.9725 s  ClockTime = 222 s


SIMPLE solution converged in 1111 iterations

End

Finalising parallel run
