/*---------------------------------------------------------------------------*\
  =========                 |
  \\      /  F ield         | OpenFOAM: The Open Source CFD Toolbox
   \\    /   O peration     | Website:  https://openfoam.org
    \\  /    A nd           | Version:  11
     \\/     M anipulation  |
\*---------------------------------------------------------------------------*/
Build  : 11-e1fc8c682ae6
Exec   : foamRun -solver incompressibleFluid -parallel
Date   : Feb 07 2026
Time   : 18:14:32
Host   : "ip-172-31-18-192"
PID    : 120047
I/O    : uncollated
Case   : /home/ubuntu/cases/bifurcation_angle30_750_ascii/Re500
nProcs : 16
Slaves : 
15
(
"ip-172-31-18-192.120048"
"ip-172-31-18-192.120049"
"ip-172-31-18-192.120050"
"ip-172-31-18-192.120051"
"ip-172-31-18-192.120052"
"ip-172-31-18-192.120053"
"ip-172-31-18-192.120054"
"ip-172-31-18-192.120055"
"ip-172-31-18-192.120056"
"ip-172-31-18-192.120057"
"ip-172-31-18-192.120058"
"ip-172-31-18-192.120059"
"ip-172-31-18-192.120060"
"ip-172-31-18-192.120061"
"ip-172-31-18-192.120062"
)

Pstream initialised with:
    floatTransfer      : false
    nProcsSimpleSum    : 0
    commsType          : nonBlocking
    polling iterations : 0
sigFpe : Enabling floating point exception trapping (FOAM_SIGFPE).
fileModificationChecking : Monitoring run-time modified files using timeStampMaster (fileModificationSkew 10)
allowSystemOperations : Allowing user-supplied system call operations

// * * * * * * * * * * * * * * * * * * * * * * * * * * * * * * * * * * * * * //
Create time

Create mesh for time = 0

Selecting solver incompressibleFluid
Selecting viscosity model Newtonian
Selecting turbulence model type laminar
Selecting laminar stress model Stokes
No MRF models present


SIMPLE: Convergence criteria found
        p: tolerance 1e-05
        U: tolerance 1e-05


SIMPLE: Operating solver in steady-state mode with 1 outer corrector
SIMPLE: Operating solver in SIMPLE mode



Starting time loop

wallShearStress wallShearStress:
    processing wall patches: 
        wall-fluid_domain

Time = 1s

smoothSolver:  Solving for Ux, Initial residual = 1, Final residual = 0.037845568, No Iterations 1
smoothSolver:  Solving for Uy, Initial residual = 1, Final residual = 0.045813443, No Iterations 1
smoothSolver:  Solving for Uz, Initial residual = 1, Final residual = 0.0088311777, No Iterations 1
GAMG:  Solving for p, Initial residual = 1, Final residual = 0.0078172496, No Iterations 10
time step continuity errors : sum local = 0.00031764761, global = -6.7046406e-06, cumulative = -6.7046406e-06
ExecutionTime = 0.639129 s  ClockTime = 0 s

Time = 2s

smoothSolver:  Solving for Ux, Initial residual = 0.24302346, Final residual = 0.013703268, No Iterations 2
smoothSolver:  Solving for Uy, Initial residual = 0.37763269, Final residual = 0.018938675, No Iterations 2
smoothSolver:  Solving for Uz, Initial residual = 0.23251255, Final residual = 0.013492449, No Iterations 2
GAMG:  Solving for p, Initial residual = 0.45448546, Final residual = 0.0040148092, No Iterations 6
time step continuity errors : sum local = 0.0094608769, global = -0.00051302218, cumulative = -0.00051972682
ExecutionTime = 0.859253 s  ClockTime = 1 s

Time = 3s

smoothSolver:  Solving for Ux, Initial residual = 0.23761267, Final residual = 0.0077451875, No Iterations 3
smoothSolver:  Solving for Uy, Initial residual = 0.14438236, Final residual = 0.0091056861, No Iterations 2
smoothSolver:  Solving for Uz, Initial residual = 0.4711442, Final residual = 0.016954868, No Iterations 3
GAMG:  Solving for p, Initial residual = 0.1507801, Final residual = 0.00115898, No Iterations 3
time step continuity errors : sum local = 0.019069735, global = 8.7417667e-05, cumulative = -0.00043230915
ExecutionTime = 1.023999 s  ClockTime = 1 s

Time = 4s

smoothSolver:  Solving for Ux, Initial residual = 0.15825425, Final residual = 0.0054238759, No Iterations 3
smoothSolver:  Solving for Uy, Initial residual = 0.076854994, Final residual = 0.0048957526, No Iterations 2
smoothSolver:  Solving for Uz, Initial residual = 0.3250154, Final residual = 0.011708706, No Iterations 3
GAMG:  Solving for p, Initial residual = 0.10655158, Final residual = 0.00083181613, No Iterations 5
time step continuity errors : sum local = 0.014380725, global = -0.00011039812, cumulative = -0.00054270727
ExecutionTime = 1.203331 s  ClockTime = 1 s

Time = 5s

smoothSolver:  Solving for Ux, Initial residual = 0.084622812, Final residual = 0.0026921014, No Iterations 3
smoothSolver:  Solving for Uy, Initial residual = 0.16950819, Final residual = 0.012097636, No Iterations 2
smoothSolver:  Solving for Uz, Initial residual = 0.13345329, Final residual = 0.0048114999, No Iterations 3
GAMG:  Solving for p, Initial residual = 0.07381988, Final residual = 0.00070771692, No Iterations 6
time step continuity errors : sum local = 0.0066069521, global = 0.00051486622, cumulative = -2.7841054e-05
ExecutionTime = 1.456136 s  ClockTime = 1 s

Time = 6s

smoothSolver:  Solving for Ux, Initial residual = 0.067722115, Final residual = 0.0056923283, No Iterations 2
smoothSolver:  Solving for Uy, Initial residual = 0.4028371, Final residual = 0.028088377, No Iterations 2
smoothSolver:  Solving for Uz, Initial residual = 0.048096277, Final residual = 0.0016203762, No Iterations 3
GAMG:  Solving for p, Initial residual = 0.45362348, Final residual = 0.0022927428, No Iterations 5
time step continuity errors : sum local = 0.0099949622, global = -0.00040412231, cumulative = -0.00043196336
ExecutionTime = 1.634795 s  ClockTime = 1 s

Time = 7s

smoothSolver:  Solving for Ux, Initial residual = 0.12255687, Final residual = 0.011983715, No Iterations 2
smoothSolver:  Solving for Uy, Initial residual = 0.26874674, Final residual = 0.018189302, No Iterations 2
smoothSolver:  Solving for Uz, Initial residual = 0.17514412, Final residual = 0.0063286352, No Iterations 3
GAMG:  Solving for p, Initial residual = 0.25607575, Final residual = 0.002083495, No Iterations 3
time step continuity errors : sum local = 0.019310688, global = -0.00031096417, cumulative = -0.00074292753
ExecutionTime = 1.792815 s  ClockTime = 2 s

Time = 8s

smoothSolver:  Solving for Ux, Initial residual = 0.11573873, Final residual = 0.003802425, No Iterations 3
smoothSolver:  Solving for Uy, Initial residual = 0.14316002, Final residual = 0.0099025874, No Iterations 2
smoothSolver:  Solving for Uz, Initial residual = 0.19991415, Final residual = 0.0072237547, No Iterations 3
GAMG:  Solving for p, Initial residual = 0.19996394, Final residual = 0.00098608987, No Iterations 5
time step continuity errors : sum local = 0.0081452474, global = 9.5121792e-05, cumulative = -0.00064780574
ExecutionTime = 1.971602 s  ClockTime = 2 s

Time = 9s

smoothSolver:  Solving for Ux, Initial residual = 0.065839228, Final residual = 0.0064712071, No Iterations 2
smoothSolver:  Solving for Uy, Initial residual = 0.23571735, Final residual = 0.019127744, No Iterations 2
smoothSolver:  Solving for Uz, Initial residual = 0.079562222, Final residual = 0.002840776, No Iterations 3
GAMG:  Solving for p, Initial residual = 0.19116178, Final residual = 0.00086115688, No Iterations 6
time step continuity errors : sum local = 0.0030637939, global = -0.00019498126, cumulative = -0.000842787
ExecutionTime = 2.158928 s  ClockTime = 2 s

Time = 10s

smoothSolver:  Solving for Ux, Initial residual = 0.063037585, Final residual = 0.0057763284, No Iterations 2
smoothSolver:  Solving for Uy, Initial residual = 0.40406074, Final residual = 0.030635139, No Iterations 2
smoothSolver:  Solving for Uz, Initial residual = 0.056550606, Final residual = 0.0020082362, No Iterations 3
GAMG:  Solving for p, Initial residual = 0.32096068, Final residual = 0.0013957505, No Iterations 5
time step continuity errors : sum local = 0.0039273031, global = 9.5544642e-05, cumulative = -0.00074724236
ExecutionTime = 2.336773 s  ClockTime = 2 s

Time = 11s

smoothSolver:  Solving for Ux, Initial residual = 0.071706849, Final residual = 0.0071276683, No Iterations 2
smoothSolver:  Solving for Uy, Initial residual = 0.24894194, Final residual = 0.017685569, No Iterations 2
smoothSolver:  Solving for Uz, Initial residual = 0.097237742, Final residual = 0.0035197291, No Iterations 3
GAMG:  Solving for p, Initial residual = 0.22142722, Final residual = 0.0013714581, No Iterations 4
time step continuity errors : sum local = 0.006277273, global = -1.5814867e-05, cumulative = -0.00076305723
ExecutionTime = 2.506614 s  ClockTime = 2 s

Time = 12s

smoothSolver:  Solving for Ux, Initial residual = 0.047742672, Final residual = 0.0015878313, No Iterations 3
smoothSolver:  Solving for Uy, Initial residual = 0.15200793, Final residual = 0.011973727, No Iterations 2
smoothSolver:  Solving for Uz, Initial residual = 0.069540813, Final residual = 0.0025137178, No Iterations 3
GAMG:  Solving for p, Initial residual = 0.17549477, Final residual = 0.0011669645, No Iterations 5
time step continuity errors : sum local = 0.0041976887, global = -6.4702995e-05, cumulative = -0.00082776022
ExecutionTime = 2.685767 s  ClockTime = 2 s

Time = 13s

smoothSolver:  Solving for Ux, Initial residual = 0.023824071, Final residual = 0.0022517138, No Iterations 2
smoothSolver:  Solving for Uy, Initial residual = 0.30051112, Final residual = 0.025723018, No Iterations 2
smoothSolver:  Solving for Uz, Initial residual = 0.01756279, Final residual = 0.00059048206, No Iterations 3
GAMG:  Solving for p, Initial residual = 0.25033506, Final residual = 0.0010590471, No Iterations 6
time step continuity errors : sum local = 0.0013501009, global = 0.00010013287, cumulative = -0.00072762736
ExecutionTime = 2.873118 s  ClockTime = 3 s

Time = 14s

smoothSolver:  Solving for Ux, Initial residual = 0.030360922, Final residual = 0.0028952894, No Iterations 2
smoothSolver:  Solving for Uy, Initial residual = 0.35317902, Final residual = 0.028170292, No Iterations 2
smoothSolver:  Solving for Uz, Initial residual = 0.030773442, Final residual = 0.001107152, No Iterations 3
GAMG:  Solving for p, Initial residual = 0.29530189, Final residual = 0.0022046766, No Iterations 4
time step continuity errors : sum local = 0.0036997738, global = 8.0597587e-05, cumulative = -0.00064702977
ExecutionTime = 3.042355 s  ClockTime = 3 s

Time = 15s

smoothSolver:  Solving for Ux, Initial residual = 0.033967395, Final residual = 0.0010778568, No Iterations 3
smoothSolver:  Solving for Uy, Initial residual = 0.19975123, Final residual = 0.014808056, No Iterations 2
smoothSolver:  Solving for Uz, Initial residual = 0.046384995, Final residual = 0.0016782902, No Iterations 3
GAMG:  Solving for p, Initial residual = 0.2182211, Final residual = 0.0016669736, No Iterations 4
time step continuity errors : sum local = 0.0036625355, global = -3.2738643e-06, cumulative = -0.00065030364
ExecutionTime = 3.212711 s  ClockTime = 3 s

Time = 16s

smoothSolver:  Solving for Ux, Initial residual = 0.02322431, Final residual = 0.00076959565, No Iterations 3
smoothSolver:  Solving for Uy, Initial residual = 0.14882578, Final residual = 0.012773599, No Iterations 2
smoothSolver:  Solving for Uz, Initial residual = 0.031523205, Final residual = 0.0011360364, No Iterations 3
GAMG:  Solving for p, Initial residual = 0.17393754, Final residual = 0.0013523275, No Iterations 5
time step continuity errors : sum local = 0.0020623301, global = 2.6561529e-05, cumulative = -0.00062374211
ExecutionTime = 3.394652 s  ClockTime = 3 s

Time = 17s

smoothSolver:  Solving for Ux, Initial residual = 0.012432047, Final residual = 0.0011000125, No Iterations 2
smoothSolver:  Solving for Uy, Initial residual = 0.28750014, Final residual = 0.02507133, No Iterations 2
smoothSolver:  Solving for Uz, Initial residual = 0.0066795048, Final residual = 0.0006154111, No Iterations 2
GAMG:  Solving for p, Initial residual = 0.43116777, Final residual = 0.0038733613, No Iterations 5
time step continuity errors : sum local = 0.0015184435, global = 3.3058283e-05, cumulative = -0.00059068382
ExecutionTime = 3.570003 s  ClockTime = 3 s

Time = 18s

smoothSolver:  Solving for Ux, Initial residual = 0.017626794, Final residual = 0.0017347156, No Iterations 2
smoothSolver:  Solving for Uy, Initial residual = 0.27065073, Final residual = 0.022088765, No Iterations 2
smoothSolver:  Solving for Uz, Initial residual = 0.018831746, Final residual = 0.00068345147, No Iterations 3
GAMG:  Solving for p, Initial residual = 0.24460257, Final residual = 0.0015566495, No Iterations 4
time step continuity errors : sum local = 0.0015774246, global = -1.368984e-05, cumulative = -0.00060437366
ExecutionTime = 3.739582 s  ClockTime = 4 s

Time = 19s

smoothSolver:  Solving for Ux, Initial residual = 0.016012178, Final residual = 0.00052404762, No Iterations 3
smoothSolver:  Solving for Uy, Initial residual = 0.15226944, Final residual = 0.011869148, No Iterations 2
smoothSolver:  Solving for Uz, Initial residual = 0.021399683, Final residual = 0.00077807174, No Iterations 3
GAMG:  Solving for p, Initial residual = 0.19011864, Final residual = 0.0017643266, No Iterations 4
time step continuity errors : sum local = 0.0019786683, global = 2.1080496e-05, cumulative = -0.00058329317
ExecutionTime = 3.909451 s  ClockTime = 4 s

Time = 20s

smoothSolver:  Solving for Ux, Initial residual = 0.010059104, Final residual = 0.00033896053, No Iterations 3
smoothSolver:  Solving for Uy, Initial residual = 0.14057592, Final residual = 0.012876713, No Iterations 2
smoothSolver:  Solving for Uz, Initial residual = 0.011785637, Final residual = 0.00042668545, No Iterations 3
GAMG:  Solving for p, Initial residual = 0.14714759, Final residual = 0.0013472352, No Iterations 5
time step continuity errors : sum local = 0.00098322321, global = -1.9842523e-05, cumulative = -0.00060313569
ExecutionTime = 4.087906 s  ClockTime = 4 s

Time = 21s

smoothSolver:  Solving for Ux, Initial residual = 0.0065385437, Final residual = 0.00059722802, No Iterations 2
smoothSolver:  Solving for Uy, Initial residual = 0.21319333, Final residual = 0.018958997, No Iterations 2
smoothSolver:  Solving for Uz, Initial residual = 0.0036014164, Final residual = 0.00034787261, No Iterations 2
GAMG:  Solving for p, Initial residual = 0.37001794, Final residual = 0.0025155859, No Iterations 5
time step continuity errors : sum local = 0.00062931746, global = -1.5010181e-05, cumulative = -0.00061814587
ExecutionTime = 4.264273 s  ClockTime = 4 s

Time = 22s

smoothSolver:  Solving for Ux, Initial residual = 0.0085693532, Final residual = 0.00084203272, No Iterations 2
smoothSolver:  Solving for Uy, Initial residual = 0.17287114, Final residual = 0.014463168, No Iterations 2
smoothSolver:  Solving for Uz, Initial residual = 0.0097010108, Final residual = 0.00034851381, No Iterations 3
GAMG:  Solving for p, Initial residual = 0.22105583, Final residual = 0.0011538798, No Iterations 4
time step continuity errors : sum local = 0.00064262305, global = 5.8793929e-06, cumulative = -0.00061226648
ExecutionTime = 4.433849 s  ClockTime = 4 s

Time = 23s

smoothSolver:  Solving for Ux, Initial residual = 0.0071465494, Final residual = 0.00022915398, No Iterations 3
smoothSolver:  Solving for Uy, Initial residual = 0.097572186, Final residual = 0.0080218709, No Iterations 2
smoothSolver:  Solving for Uz, Initial residual = 0.0096924173, Final residual = 0.00034836015, No Iterations 3
GAMG:  Solving for p, Initial residual = 0.17448718, Final residual = 0.00079764447, No Iterations 5
time step continuity errors : sum local = 0.00043600492, global = 2.5285302e-06, cumulative = -0.00060973795
ExecutionTime = 4.613512 s  ClockTime = 4 s

Time = 24s

smoothSolver:  Solving for Ux, Initial residual = 0.0044486657, Final residual = 0.00014050621, No Iterations 3
smoothSolver:  Solving for Uy, Initial residual = 0.10439849, Final residual = 0.0097788796, No Iterations 2
smoothSolver:  Solving for Uz, Initial residual = 0.0044333353, Final residual = 0.00015526701, No Iterations 3
GAMG:  Solving for p, Initial residual = 0.14420362, Final residual = 0.0013982059, No Iterations 5
time step continuity errors : sum local = 0.00045319297, global = 9.5272054e-06, cumulative = -0.00060021074
ExecutionTime = 4.79239 s  ClockTime = 5 s

Time = 25s

smoothSolver:  Solving for Ux, Initial residual = 0.0042721863, Final residual = 0.00041912482, No Iterations 2
smoothSolver:  Solving for Uy, Initial residual = 0.13018219, Final residual = 0.011760232, No Iterations 2
smoothSolver:  Solving for Uz, Initial residual = 0.0030561098, Final residual = 0.00010592225, No Iterations 3
GAMG:  Solving for p, Initial residual = 0.18239252, Final residual = 0.00089341439, No Iterations 5
time step continuity errors : sum local = 0.00025097381, global = 4.3907835e-06, cumulative = -0.00059581996
ExecutionTime = 4.970007 s  ClockTime = 5 s

Time = 26s

smoothSolver:  Solving for Ux, Initial residual = 0.0048520595, Final residual = 0.0001588887, No Iterations 3
smoothSolver:  Solving for Uy, Initial residual = 0.098996418, Final residual = 0.0086391333, No Iterations 2
smoothSolver:  Solving for Uz, Initial residual = 0.0053704981, Final residual = 0.00019553902, No Iterations 3
GAMG:  Solving for p, Initial residual = 0.14924703, Final residual = 0.0010156254, No Iterations 4
time step continuity errors : sum local = 0.00040685925, global = 1.4155901e-06, cumulative = -0.00059440437
ExecutionTime = 5.140249 s  ClockTime = 5 s

Time = 27s

smoothSolver:  Solving for Ux, Initial residual = 0.0038632668, Final residual = 0.00013210671, No Iterations 3
smoothSolver:  Solving for Uy, Initial residual = 0.062396036, Final residual = 0.0057510774, No Iterations 2
smoothSolver:  Solving for Uz, Initial residual = 0.0046367245, Final residual = 0.00016875522, No Iterations 3
GAMG:  Solving for p, Initial residual = 0.11257829, Final residual = 0.00061347565, No Iterations 5
time step continuity errors : sum local = 0.00022988553, global = -3.0570944e-06, cumulative = -0.00059746146
ExecutionTime = 5.320769 s  ClockTime = 5 s

Time = 28s

smoothSolver:  Solving for Ux, Initial residual = 0.0029465288, Final residual = 9.7391507e-05, No Iterations 3
smoothSolver:  Solving for Uy, Initial residual = 0.069293013, Final residual = 0.0067040302, No Iterations 2
smoothSolver:  Solving for Uz, Initial residual = 0.0023537403, Final residual = 8.2301568e-05, No Iterations 3
GAMG:  Solving for p, Initial residual = 0.088533325, Final residual = 0.00078962124, No Iterations 5
time step continuity errors : sum local = 0.0002063975, global = -4.9421221e-06, cumulative = -0.00060240359
ExecutionTime = 5.500417 s  ClockTime = 5 s

Time = 29s

smoothSolver:  Solving for Ux, Initial residual = 0.0026068912, Final residual = 0.00025590423, No Iterations 2
smoothSolver:  Solving for Uy, Initial residual = 0.07342279, Final residual = 0.0068467645, No Iterations 2
smoothSolver:  Solving for Uz, Initial residual = 0.0019929709, Final residual = 6.7050524e-05, No Iterations 3
GAMG:  Solving for p, Initial residual = 0.14627872, Final residual = 0.0012686877, No Iterations 4
time step continuity errors : sum local = 0.0002558275, global = 4.5946724e-06, cumulative = -0.00059780891
ExecutionTime = 5.672569 s  ClockTime = 5 s

Time = 30s

smoothSolver:  Solving for Ux, Initial residual = 0.0024679042, Final residual = 7.763239e-05, No Iterations 3
smoothSolver:  Solving for Uy, Initial residual = 0.054932593, Final residual = 0.0050938256, No Iterations 2
smoothSolver:  Solving for Uz, Initial residual = 0.0026538146, Final residual = 9.3278208e-05, No Iterations 3
GAMG:  Solving for p, Initial residual = 0.12643107, Final residual = 0.00096571277, No Iterations 4
time step continuity errors : sum local = 0.00023214388, global = 7.1337329e-08, cumulative = -0.00059773758
ExecutionTime = 5.845002 s  ClockTime = 6 s

Time = 31s

smoothSolver:  Solving for Ux, Initial residual = 0.002039251, Final residual = 6.6085913e-05, No Iterations 3
smoothSolver:  Solving for Uy, Initial residual = 0.041661297, Final residual = 0.0041191746, No Iterations 2
smoothSolver:  Solving for Uz, Initial residual = 0.0020872106, Final residual = 7.2415169e-05, No Iterations 3
GAMG:  Solving for p, Initial residual = 0.095765269, Final residual = 0.00053090859, No Iterations 5
time step continuity errors : sum local = 0.00011426966, global = 6.1454567e-07, cumulative = -0.00059712303
ExecutionTime = 6.024637 s  ClockTime = 6 s

Time = 32s

smoothSolver:  Solving for Ux, Initial residual = 0.0020730481, Final residual = 6.8365569e-05, No Iterations 3
smoothSolver:  Solving for Uy, Initial residual = 0.045927646, Final residual = 0.0045683314, No Iterations 2
smoothSolver:  Solving for Uz, Initial residual = 0.001552984, Final residual = 5.2932719e-05, No Iterations 3
GAMG:  Solving for p, Initial residual = 0.073828388, Final residual = 0.00047685888, No Iterations 5
time step continuity errors : sum local = 9.1082956e-05, global = 1.1695909e-06, cumulative = -0.00059595344
ExecutionTime = 6.203872 s  ClockTime = 6 s

Time = 33s

smoothSolver:  Solving for Ux, Initial residual = 0.0022546317, Final residual = 7.5702219e-05, No Iterations 3
smoothSolver:  Solving for Uy, Initial residual = 0.045008964, Final residual = 0.0044052191, No Iterations 2
smoothSolver:  Solving for Uz, Initial residual = 0.0019446574, Final residual = 6.8676278e-05, No Iterations 3
GAMG:  Solving for p, Initial residual = 0.071915263, Final residual = 0.00054595325, No Iterations 4
time step continuity errors : sum local = 0.00012964542, global = -9.3742028e-07, cumulative = -0.00059689086
ExecutionTime = 6.37381 s  ClockTime = 6 s

Time = 34s

smoothSolver:  Solving for Ux, Initial residual = 0.0021606975, Final residual = 7.4205875e-05, No Iterations 3
smoothSolver:  Solving for Uy, Initial residual = 0.036709846, Final residual = 0.0011560089, No Iterations 3
smoothSolver:  Solving for Uz, Initial residual = 0.0020728693, Final residual = 7.3764625e-05, No Iterations 3
GAMG:  Solving for p, Initial residual = 0.063836474, Final residual = 0.00057746212, No Iterations 4
time step continuity errors : sum local = 0.00014495156, global = 7.1529556e-07, cumulative = -0.00059617556
ExecutionTime = 6.545757 s  ClockTime = 6 s

Time = 35s

smoothSolver:  Solving for Ux, Initial residual = 0.0019853969, Final residual = 6.8624097e-05, No Iterations 3
smoothSolver:  Solving for Uy, Initial residual = 0.032548442, Final residual = 0.0010676977, No Iterations 3
smoothSolver:  Solving for Uz, Initial residual = 0.0018157641, Final residual = 6.402899e-05, No Iterations 3
GAMG:  Solving for p, Initial residual = 0.04888567, Final residual = 0.00026581376, No Iterations 5
time step continuity errors : sum local = 6.2835844e-05, global = -5.3218009e-07, cumulative = -0.00059670774
ExecutionTime = 6.725294 s  ClockTime = 7 s

Time = 36s

smoothSolver:  Solving for Ux, Initial residual = 0.0018656799, Final residual = 6.3312283e-05, No Iterations 3
smoothSolver:  Solving for Uy, Initial residual = 0.03307393, Final residual = 0.0010720072, No Iterations 3
smoothSolver:  Solving for Uz, Initial residual = 0.0015106117, Final residual = 5.2351637e-05, No Iterations 3
GAMG:  Solving for p, Initial residual = 0.049401884, Final residual = 0.00023620334, No Iterations 5
time step continuity errors : sum local = 4.9631701e-05, global = -2.7531949e-07, cumulative = -0.00059698306
ExecutionTime = 6.908908 s  ClockTime = 7 s

Time = 37s

smoothSolver:  Solving for Ux, Initial residual = 0.0017634262, Final residual = 5.9186889e-05, No Iterations 3
smoothSolver:  Solving for Uy, Initial residual = 0.031076917, Final residual = 0.001004333, No Iterations 3
smoothSolver:  Solving for Uz, Initial residual = 0.0014074328, Final residual = 4.8277739e-05, No Iterations 3
GAMG:  Solving for p, Initial residual = 0.060542384, Final residual = 0.00045082198, No Iterations 4
time step continuity errors : sum local = 8.6671386e-05, global = 7.3859638e-07, cumulative = -0.00059624447
ExecutionTime = 7.080866 s  ClockTime = 7 s

Time = 38s

smoothSolver:  Solving for Ux, Initial residual = 0.0016921541, Final residual = 5.7202078e-05, No Iterations 3
smoothSolver:  Solving for Uy, Initial residual = 0.027701695, Final residual = 0.00091813746, No Iterations 3
smoothSolver:  Solving for Uz, Initial residual = 0.0013856141, Final residual = 4.7592681e-05, No Iterations 3
GAMG:  Solving for p, Initial residual = 0.055705591, Final residual = 0.00053647268, No Iterations 4
time step continuity errors : sum local = 0.00010235788, global = -2.3118463e-07, cumulative = -0.00059647565
ExecutionTime = 7.251758 s  ClockTime = 7 s

Time = 39s

smoothSolver:  Solving for Ux, Initial residual = 0.0016972477, Final residual = 5.7794315e-05, No Iterations 3
smoothSolver:  Solving for Uy, Initial residual = 0.026626074, Final residual = 0.00089376916, No Iterations 3
smoothSolver:  Solving for Uz, Initial residual = 0.0013906076, Final residual = 4.8049736e-05, No Iterations 3
GAMG:  Solving for p, Initial residual = 0.043701446, Final residual = 0.00019743304, No Iterations 5
time step continuity errors : sum local = 3.959124e-05, global = -7.4236703e-07, cumulative = -0.00059721802
ExecutionTime = 7.432375 s  ClockTime = 7 s

Time = 40s

smoothSolver:  Solving for Ux, Initial residual = 0.0017384492, Final residual = 5.9423819e-05, No Iterations 3
smoothSolver:  Solving for Uy, Initial residual = 0.026454926, Final residual = 0.00088372422, No Iterations 3
smoothSolver:  Solving for Uz, Initial residual = 0.0014544215, Final residual = 5.0668123e-05, No Iterations 3
GAMG:  Solving for p, Initial residual = 0.039218639, Final residual = 0.0001595985, No Iterations 5
time step continuity errors : sum local = 3.4213407e-05, global = -5.1125398e-07, cumulative = -0.00059772927
ExecutionTime = 7.611987 s  ClockTime = 7 s

Time = 41s

smoothSolver:  Solving for Ux, Initial residual = 0.0017459323, Final residual = 5.9934524e-05, No Iterations 3
smoothSolver:  Solving for Uy, Initial residual = 0.025319465, Final residual = 0.00084858146, No Iterations 3
smoothSolver:  Solving for Uz, Initial residual = 0.0015030593, Final residual = 5.2613626e-05, No Iterations 3
GAMG:  Solving for p, Initial residual = 0.038521103, Final residual = 0.00023647033, No Iterations 4
time step continuity errors : sum local = 5.2816355e-05, global = 4.5348744e-07, cumulative = -0.00059727579
ExecutionTime = 7.785148 s  ClockTime = 8 s

Time = 42s

smoothSolver:  Solving for Ux, Initial residual = 0.0017178857, Final residual = 5.9130428e-05, No Iterations 3
smoothSolver:  Solving for Uy, Initial residual = 0.023971233, Final residual = 0.00081143247, No Iterations 3
smoothSolver:  Solving for Uz, Initial residual = 0.0014849959, Final residual = 5.1986522e-05, No Iterations 3
GAMG:  Solving for p, Initial residual = 0.035992074, Final residual = 0.00015710427, No Iterations 5
time step continuity errors : sum local = 3.5302434e-05, global = 3.6898992e-07, cumulative = -0.0005969068
ExecutionTime = 7.96756 s  ClockTime = 8 s

Time = 43s

smoothSolver:  Solving for Ux, Initial residual = 0.0016830363, Final residual = 5.7811924e-05, No Iterations 3
smoothSolver:  Solving for Uy, Initial residual = 0.023223509, Final residual = 0.00078802975, No Iterations 3
smoothSolver:  Solving for Uz, Initial residual = 0.0014216904, Final residual = 4.9613441e-05, No Iterations 3
GAMG:  Solving for p, Initial residual = 0.03427876, Final residual = 0.00015536854, No Iterations 5
time step continuity errors : sum local = 3.4285398e-05, global = 4.0988974e-07, cumulative = -0.00059649691
ExecutionTime = 8.150314 s  ClockTime = 8 s

Time = 44s

smoothSolver:  Solving for Ux, Initial residual = 0.0016514699, Final residual = 5.6518738e-05, No Iterations 3
smoothSolver:  Solving for Uy, Initial residual = 0.02257761, Final residual = 0.00076481026, No Iterations 3
smoothSolver:  Solving for Uz, Initial residual = 0.0013622922, Final residual = 4.7373299e-05, No Iterations 3
GAMG:  Solving for p, Initial residual = 0.035367176, Final residual = 0.00014778298, No Iterations 5
time step continuity errors : sum local = 3.1906309e-05, global = 1.3442809e-07, cumulative = -0.00059636248
ExecutionTime = 8.329865 s  ClockTime = 8 s

Time = 45s

smoothSolver:  Solving for Ux, Initial residual = 0.0016270283, Final residual = 5.5622122e-05, No Iterations 3
smoothSolver:  Solving for Uy, Initial residual = 0.021725073, Final residual = 0.00073771955, No Iterations 3
smoothSolver:  Solving for Uz, Initial residual = 0.0013301494, Final residual = 4.6191027e-05, No Iterations 3
GAMG:  Solving for p, Initial residual = 0.035672816, Final residual = 0.00020061863, No Iterations 4
time step continuity errors : sum local = 4.2934557e-05, global = -2.665023e-07, cumulative = -0.00059662898
ExecutionTime = 8.500975 s  ClockTime = 8 s

Time = 46s

smoothSolver:  Solving for Ux, Initial residual = 0.0016139754, Final residual = 5.5214365e-05, No Iterations 3
smoothSolver:  Solving for Uy, Initial residual = 0.020955972, Final residual = 0.00071428995, No Iterations 3
smoothSolver:  Solving for Uz, Initial residual = 0.0013189716, Final residual = 4.5840919e-05, No Iterations 3
GAMG:  Solving for p, Initial residual = 0.034293606, Final residual = 0.00032706505, No Iterations 4
time step continuity errors : sum local = 7.0466531e-05, global = -6.3806381e-07, cumulative = -0.00059726704
ExecutionTime = 8.672955 s  ClockTime = 9 s

Time = 47s

smoothSolver:  Solving for Ux, Initial residual = 0.0016136204, Final residual = 5.5229693e-05, No Iterations 3
smoothSolver:  Solving for Uy, Initial residual = 0.020391681, Final residual = 0.00069620257, No Iterations 3
smoothSolver:  Solving for Uz, Initial residual = 0.0013219109, Final residual = 4.6036134e-05, No Iterations 3
GAMG:  Solving for p, Initial residual = 0.03276729, Final residual = 0.00031774929, No Iterations 4
time step continuity errors : sum local = 6.9641426e-05, global = -6.2481033e-07, cumulative = -0.00059789185
ExecutionTime = 8.848625 s  ClockTime = 9 s

Time = 48s

smoothSolver:  Solving for Ux, Initial residual = 0.0016145436, Final residual = 5.5252978e-05, No Iterations 3
smoothSolver:  Solving for Uy, Initial residual = 0.019867516, Final residual = 0.00067866563, No Iterations 3
smoothSolver:  Solving for Uz, Initial residual = 0.0013279685, Final residual = 4.6342794e-05, No Iterations 3
GAMG:  Solving for p, Initial residual = 0.031908725, Final residual = 0.00027448817, No Iterations 4
time step continuity errors : sum local = 6.1248045e-05, global = -3.5169653e-07, cumulative = -0.00059824355
ExecutionTime = 9.022086 s  ClockTime = 9 s

Time = 49s

smoothSolver:  Solving for Ux, Initial residual = 0.0016091017, Final residual = 5.5077433e-05, No Iterations 3
smoothSolver:  Solving for Uy, Initial residual = 0.01931236, Final residual = 0.00066063453, No Iterations 3
smoothSolver:  Solving for Uz, Initial residual = 0.0013249175, Final residual = 4.6298116e-05, No Iterations 3
GAMG:  Solving for p, Initial residual = 0.031287924, Final residual = 0.00017279631, No Iterations 4
time step continuity errors : sum local = 3.9001826e-05, global = 4.9538616e-07, cumulative = -0.00059774816
ExecutionTime = 9.195076 s  ClockTime = 9 s

Time = 50s

smoothSolver:  Solving for Ux, Initial residual = 0.0015990177, Final residual = 5.4742016e-05, No Iterations 3
smoothSolver:  Solving for Uy, Initial residual = 0.018769399, Final residual = 0.00064313669, No Iterations 3
smoothSolver:  Solving for Uz, Initial residual = 0.0013115849, Final residual = 4.5857493e-05, No Iterations 3
GAMG:  Solving for p, Initial residual = 0.030545047, Final residual = 0.00013396347, No Iterations 5
time step continuity errors : sum local = 3.0398089e-05, global = 3.5195859e-07, cumulative = -0.00059739621
ExecutionTime = 9.376347 s  ClockTime = 9 s

Time = 51s

smoothSolver:  Solving for Ux, Initial residual = 0.0015868576, Final residual = 5.4304472e-05, No Iterations 3
smoothSolver:  Solving for Uy, Initial residual = 0.018284963, Final residual = 0.00062709016, No Iterations 3
smoothSolver:  Solving for Uz, Initial residual = 0.001289819, Final residual = 4.5075051e-05, No Iterations 3
GAMG:  Solving for p, Initial residual = 0.030048082, Final residual = 0.000131918, No Iterations 5
time step continuity errors : sum local = 2.9925158e-05, global = 2.965267e-07, cumulative = -0.00059709968
ExecutionTime = 9.558163 s  ClockTime = 9 s

Time = 52s

smoothSolver:  Solving for Ux, Initial residual = 0.001574132, Final residual = 5.3835007e-05, No Iterations 3
smoothSolver:  Solving for Uy, Initial residual = 0.01781275, Final residual = 0.00061112719, No Iterations 3
smoothSolver:  Solving for Uz, Initial residual = 0.0012673427, Final residual = 4.4267945e-05, No Iterations 3
GAMG:  Solving for p, Initial residual = 0.029842962, Final residual = 0.0002557777, No Iterations 4
time step continuity errors : sum local = 5.7935803e-05, global = 5.6781315e-07, cumulative = -0.00059653187
ExecutionTime = 9.730448 s  ClockTime = 10 s

Time = 53s

smoothSolver:  Solving for Ux, Initial residual = 0.0015631835, Final residual = 5.3454174e-05, No Iterations 3
smoothSolver:  Solving for Uy, Initial residual = 0.01732742, Final residual = 0.0005950996, No Iterations 3
smoothSolver:  Solving for Uz, Initial residual = 0.001251146, Final residual = 4.3707997e-05, No Iterations 3
GAMG:  Solving for p, Initial residual = 0.029471705, Final residual = 0.0002893643, No Iterations 3
time step continuity errors : sum local = 6.5689225e-05, global = 6.863554e-07, cumulative = -0.00059584551
ExecutionTime = 9.892214 s  ClockTime = 10 s

Time = 54s

smoothSolver:  Solving for Ux, Initial residual = 0.0015526082, Final residual = 5.3104338e-05, No Iterations 3
smoothSolver:  Solving for Uy, Initial residual = 0.016862213, Final residual = 0.00057964084, No Iterations 3
smoothSolver:  Solving for Uz, Initial residual = 0.0012394069, Final residual = 4.3319566e-05, No Iterations 3
GAMG:  Solving for p, Initial residual = 0.028950005, Final residual = 0.00017322828, No Iterations 4
time step continuity errors : sum local = 3.9520468e-05, global = 2.1492124e-08, cumulative = -0.00059582402
ExecutionTime = 10.062156 s  ClockTime = 10 s

Time = 55s

smoothSolver:  Solving for Ux, Initial residual = 0.0015469367, Final residual = 5.294921e-05, No Iterations 3
smoothSolver:  Solving for Uy, Initial residual = 0.016436377, Final residual = 0.00056572926, No Iterations 3
smoothSolver:  Solving for Uz, Initial residual = 0.0012284284, Final residual = 4.2958412e-05, No Iterations 3
GAMG:  Solving for p, Initial residual = 0.028657813, Final residual = 0.00018630769, No Iterations 4
time step continuity errors : sum local = 4.274854e-05, global = -6.9942612e-08, cumulative = -0.00059589396
ExecutionTime = 10.234387 s  ClockTime = 10 s

Time = 56s

smoothSolver:  Solving for Ux, Initial residual = 0.0015424318, Final residual = 5.2877843e-05, No Iterations 3
smoothSolver:  Solving for Uy, Initial residual = 0.016046305, Final residual = 0.00055296326, No Iterations 3
smoothSolver:  Solving for Uz, Initial residual = 0.0012196264, Final residual = 4.268428e-05, No Iterations 3
GAMG:  Solving for p, Initial residual = 0.02830731, Final residual = 0.00018072781, No Iterations 4
time step continuity errors : sum local = 4.173906e-05, global = -3.0068969e-08, cumulative = -0.00059592403
ExecutionTime = 10.405313 s  ClockTime = 10 s

Time = 57s

smoothSolver:  Solving for Ux, Initial residual = 0.0015372599, Final residual = 5.2781559e-05, No Iterations 3
smoothSolver:  Solving for Uy, Initial residual = 0.015679665, Final residual = 0.00054090359, No Iterations 3
smoothSolver:  Solving for Uz, Initial residual = 0.0012115064, Final residual = 4.2441772e-05, No Iterations 3
GAMG:  Solving for p, Initial residual = 0.027916413, Final residual = 0.00026382075, No Iterations 3
time step continuity errors : sum local = 6.1321933e-05, global = 2.238668e-07, cumulative = -0.00059570016
ExecutionTime = 10.567561 s  ClockTime = 10 s

Time = 58s

smoothSolver:  Solving for Ux, Initial residual = 0.0015279194, Final residual = 5.2512851e-05, No Iterations 3
smoothSolver:  Solving for Uy, Initial residual = 0.015307632, Final residual = 0.00052880035, No Iterations 3
smoothSolver:  Solving for Uz, Initial residual = 0.0012017963, Final residual = 4.214877e-05, No Iterations 3
GAMG:  Solving for p, Initial residual = 0.027475166, Final residual = 0.00017299274, No Iterations 4
time step continuity errors : sum local = 4.0419607e-05, global = 4.178223e-07, cumulative = -0.00059528234
ExecutionTime = 10.739163 s  ClockTime = 11 s

Time = 59s

smoothSolver:  Solving for Ux, Initial residual = 0.0015212089, Final residual = 5.2329461e-05, No Iterations 3
smoothSolver:  Solving for Uy, Initial residual = 0.014949389, Final residual = 0.00051717037, No Iterations 3
smoothSolver:  Solving for Uz, Initial residual = 0.0011909544, Final residual = 4.1800668e-05, No Iterations 3
GAMG:  Solving for p, Initial residual = 0.027221336, Final residual = 0.00017776475, No Iterations 4
time step continuity errors : sum local = 4.173654e-05, global = 6.5028634e-07, cumulative = -0.00059463205
ExecutionTime = 10.911602 s  ClockTime = 11 s

Time = 60s

smoothSolver:  Solving for Ux, Initial residual = 0.0015137041, Final residual = 5.2130794e-05, No Iterations 3
smoothSolver:  Solving for Uy, Initial residual = 0.01459848, Final residual = 0.00050588734, No Iterations 3
smoothSolver:  Solving for Uz, Initial residual = 0.0011789677, Final residual = 4.14035e-05, No Iterations 3
GAMG:  Solving for p, Initial residual = 0.02692597, Final residual = 0.00018191199, No Iterations 4
time step continuity errors : sum local = 4.2879659e-05, global = 7.1833763e-07, cumulative = -0.00059391372
ExecutionTime = 11.0877 s  ClockTime = 11 s

Time = 61s

smoothSolver:  Solving for Ux, Initial residual = 0.0015053625, Final residual = 5.190066e-05, No Iterations 3
smoothSolver:  Solving for Uy, Initial residual = 0.01426173, Final residual = 0.0004949788, No Iterations 3
smoothSolver:  Solving for Uz, Initial residual = 0.001166574, Final residual = 4.09912e-05, No Iterations 3
GAMG:  Solving for p, Initial residual = 0.026782112, Final residual = 0.00017982442, No Iterations 4
time step continuity errors : sum local = 4.2538778e-05, global = 6.6029783e-07, cumulative = -0.00059325342
ExecutionTime = 11.259567 s  ClockTime = 11 s

Time = 62s

smoothSolver:  Solving for Ux, Initial residual = 0.0014968968, Final residual = 5.1642997e-05, No Iterations 3
smoothSolver:  Solving for Uy, Initial residual = 0.013946178, Final residual = 0.00048490553, No Iterations 3
smoothSolver:  Solving for Uz, Initial residual = 0.0011547613, Final residual = 4.0597973e-05, No Iterations 3
GAMG:  Solving for p, Initial residual = 0.026584655, Final residual = 0.00016534016, No Iterations 4
time step continuity errors : sum local = 3.9247769e-05, global = 5.7301346e-07, cumulative = -0.00059268041
ExecutionTime = 11.429924 s  ClockTime = 11 s

Time = 63s

smoothSolver:  Solving for Ux, Initial residual = 0.0014890934, Final residual = 5.1407138e-05, No Iterations 3
smoothSolver:  Solving for Uy, Initial residual = 0.013663328, Final residual = 0.00047570259, No Iterations 3
smoothSolver:  Solving for Uz, Initial residual = 0.0011441635, Final residual = 4.0245001e-05, No Iterations 3
GAMG:  Solving for p, Initial residual = 0.026418846, Final residual = 0.00026367847, No Iterations 3
time step continuity errors : sum local = 6.2820371e-05, global = 7.3268838e-07, cumulative = -0.00059194772
ExecutionTime = 11.590667 s  ClockTime = 12 s

Time = 64s

smoothSolver:  Solving for Ux, Initial residual = 0.0014805503, Final residual = 5.1144981e-05, No Iterations 3
smoothSolver:  Solving for Uy, Initial residual = 0.013403338, Final residual = 0.00046720049, No Iterations 3
smoothSolver:  Solving for Uz, Initial residual = 0.0011349242, Final residual = 3.9946644e-05, No Iterations 3
GAMG:  Solving for p, Initial residual = 0.026145159, Final residual = 0.00016231703, No Iterations 4
time step continuity errors : sum local = 3.8836914e-05, global = 3.4917949e-07, cumulative = -0.00059159854
ExecutionTime = 11.76114 s  ClockTime = 12 s

Time = 65s

smoothSolver:  Solving for Ux, Initial residual = 0.0014760066, Final residual = 5.105626e-05, No Iterations 3
smoothSolver:  Solving for Uy, Initial residual = 0.013165531, Final residual = 0.0004594197, No Iterations 3
smoothSolver:  Solving for Uz, Initial residual = 0.0011251827, Final residual = 3.9618374e-05, No Iterations 3
GAMG:  Solving for p, Initial residual = 0.025906477, Final residual = 0.00015294567, No Iterations 4
time step continuity errors : sum local = 3.6746097e-05, global = 2.8490235e-07, cumulative = -0.00059131364
ExecutionTime = 11.933178 s  ClockTime = 12 s

Time = 66s

smoothSolver:  Solving for Ux, Initial residual = 0.0014708805, Final residual = 5.0971417e-05, No Iterations 3
smoothSolver:  Solving for Uy, Initial residual = 0.01291346, Final residual = 0.00045109773, No Iterations 3
smoothSolver:  Solving for Uz, Initial residual = 0.0011153091, Final residual = 3.929248e-05, No Iterations 3
GAMG:  Solving for p, Initial residual = 0.025767343, Final residual = 0.00025713307, No Iterations 3
time step continuity errors : sum local = 6.2054058e-05, global = 4.8984308e-07, cumulative = -0.00059082379
ExecutionTime = 12.093309 s  ClockTime = 12 s

Time = 67s

smoothSolver:  Solving for Ux, Initial residual = 0.0014627539, Final residual = 5.0770792e-05, No Iterations 3
smoothSolver:  Solving for Uy, Initial residual = 0.012647436, Final residual = 0.00044232542, No Iterations 3
smoothSolver:  Solving for Uz, Initial residual = 0.0011057308, Final residual = 3.8981993e-05, No Iterations 3
GAMG:  Solving for p, Initial residual = 0.025517336, Final residual = 0.00014662295, No Iterations 4
time step continuity errors : sum local = 3.5545387e-05, global = 3.1359078e-07, cumulative = -0.0005905102
ExecutionTime = 12.263948 s  ClockTime = 12 s

Time = 68s

smoothSolver:  Solving for Ux, Initial residual = 0.0014566994, Final residual = 5.0640573e-05, No Iterations 3
smoothSolver:  Solving for Uy, Initial residual = 0.0123874, Final residual = 0.00043371738, No Iterations 3
smoothSolver:  Solving for Uz, Initial residual = 0.0010959904, Final residual = 3.8651576e-05, No Iterations 3
GAMG:  Solving for p, Initial residual = 0.025333023, Final residual = 0.00014548497, No Iterations 4
time step continuity errors : sum local = 3.5433849e-05, global = 4.0670279e-07, cumulative = -0.0005901035
ExecutionTime = 12.434071 s  ClockTime = 12 s

Time = 69s

smoothSolver:  Solving for Ux, Initial residual = 0.001449618, Final residual = 5.04515e-05, No Iterations 3
smoothSolver:  Solving for Uy, Initial residual = 0.012150589, Final residual = 0.0004256153, No Iterations 3
smoothSolver:  Solving for Uz, Initial residual = 0.0010866359, Final residual = 3.8336967e-05, No Iterations 3
GAMG:  Solving for p, Initial residual = 0.025208342, Final residual = 0.00025079705, No Iterations 3
time step continuity errors : sum local = 6.1364901e-05, global = 7.8354457e-07, cumulative = -0.00058931995
ExecutionTime = 12.596457 s  ClockTime = 13 s

Time = 70s

smoothSolver:  Solving for Ux, Initial residual = 0.0014405492, Final residual = 5.0185345e-05, No Iterations 3
smoothSolver:  Solving for Uy, Initial residual = 0.011944835, Final residual = 0.00041849634, No Iterations 3
smoothSolver:  Solving for Uz, Initial residual = 0.0010780337, Final residual = 3.8057742e-05, No Iterations 3
GAMG:  Solving for p, Initial residual = 0.02495544, Final residual = 0.00015342, No Iterations 4
time step continuity errors : sum local = 3.7697929e-05, global = 5.0545534e-07, cumulative = -0.0005888145
ExecutionTime = 12.767387 s  ClockTime = 13 s

Time = 71s

smoothSolver:  Solving for Ux, Initial residual = 0.001434112, Final residual = 5.0034329e-05, No Iterations 3
smoothSolver:  Solving for Uy, Initial residual = 0.011770116, Final residual = 0.00041265132, No Iterations 3
smoothSolver:  Solving for Uz, Initial residual = 0.0010692038, Final residual = 3.7770148e-05, No Iterations 3
GAMG:  Solving for p, Initial residual = 0.024785914, Final residual = 0.00014870543, No Iterations 4
time step continuity errors : sum local = 3.6678214e-05, global = 5.0240434e-07, cumulative = -0.00058831209
ExecutionTime = 12.937254 s  ClockTime = 13 s

Time = 72s

smoothSolver:  Solving for Ux, Initial residual = 0.0014275421, Final residual = 4.9900212e-05, No Iterations 3
smoothSolver:  Solving for Uy, Initial residual = 0.011600474, Final residual = 0.00040687706, No Iterations 3
smoothSolver:  Solving for Uz, Initial residual = 0.0010604361, Final residual = 3.7490948e-05, No Iterations 3
GAMG:  Solving for p, Initial residual = 0.024702771, Final residual = 0.0001408626, No Iterations 4
time step continuity errors : sum local = 3.487397e-05, global = 4.5838286e-07, cumulative = -0.00058785371
ExecutionTime = 13.108452 s  ClockTime = 13 s

Time = 73s

smoothSolver:  Solving for Ux, Initial residual = 0.0014205131, Final residual = 4.9755585e-05, No Iterations 3
smoothSolver:  Solving for Uy, Initial residual = 0.011415023, Final residual = 0.00040049718, No Iterations 3
smoothSolver:  Solving for Uz, Initial residual = 0.0010514151, Final residual = 3.7205584e-05, No Iterations 3
GAMG:  Solving for p, Initial residual = 0.024595451, Final residual = 0.00024586412, No Iterations 3
time step continuity errors : sum local = 6.1096631e-05, global = 6.3577091e-07, cumulative = -0.00058721794
ExecutionTime = 13.270967 s  ClockTime = 13 s

Time = 74s

smoothSolver:  Solving for Ux, Initial residual = 0.0014117065, Final residual = 4.9521282e-05, No Iterations 3
smoothSolver:  Solving for Uy, Initial residual = 0.011212409, Final residual = 0.00039335301, No Iterations 3
smoothSolver:  Solving for Uz, Initial residual = 0.0010425485, Final residual = 3.6929475e-05, No Iterations 3
GAMG:  Solving for p, Initial residual = 0.024270632, Final residual = 0.00014459515, No Iterations 4
time step continuity errors : sum local = 3.6066059e-05, global = 3.4376803e-07, cumulative = -0.00058687417
ExecutionTime = 13.44185 s  ClockTime = 13 s

Time = 75s

smoothSolver:  Solving for Ux, Initial residual = 0.0014054278, Final residual = 4.9363116e-05, No Iterations 3
smoothSolver:  Solving for Uy, Initial residual = 0.011019561, Final residual = 0.00038622699, No Iterations 3
smoothSolver:  Solving for Uz, Initial residual = 0.0010327251, Final residual = 3.6606896e-05, No Iterations 3
GAMG:  Solving for p, Initial residual = 0.024148279, Final residual = 0.00013891289, No Iterations 4
time step continuity errors : sum local = 3.4766026e-05, global = 3.1050728e-07, cumulative = -0.00058656367
ExecutionTime = 13.61231 s  ClockTime = 14 s

Time = 76s

smoothSolver:  Solving for Ux, Initial residual = 0.0013987355, Final residual = 4.9188408e-05, No Iterations 3
smoothSolver:  Solving for Uy, Initial residual = 0.01084192, Final residual = 0.00037957219, No Iterations 3
smoothSolver:  Solving for Uz, Initial residual = 0.0010233353, Final residual = 3.6297213e-05, No Iterations 3
GAMG:  Solving for p, Initial residual = 0.02404565, Final residual = 0.00013041343, No Iterations 4
time step continuity errors : sum local = 3.2754928e-05, global = 3.0160735e-07, cumulative = -0.00058626206
ExecutionTime = 13.783415 s  ClockTime = 14 s

Time = 77s

smoothSolver:  Solving for Ux, Initial residual = 0.0013914699, Final residual = 4.9019804e-05, No Iterations 3
smoothSolver:  Solving for Uy, Initial residual = 0.010684321, Final residual = 0.00037351506, No Iterations 3
smoothSolver:  Solving for Uz, Initial residual = 0.001014591, Final residual = 3.6011655e-05, No Iterations 3
GAMG:  Solving for p, Initial residual = 0.023904532, Final residual = 0.00023252906, No Iterations 3
time step continuity errors : sum local = 5.8615621e-05, global = 5.44068e-07, cumulative = -0.00058571799
ExecutionTime = 13.947273 s  ClockTime = 14 s

Time = 78s

smoothSolver:  Solving for Ux, Initial residual = 0.001382711, Final residual = 4.8755481e-05, No Iterations 3
smoothSolver:  Solving for Uy, Initial residual = 0.010531976, Final residual = 0.00036781662, No Iterations 3
smoothSolver:  Solving for Uz, Initial residual = 0.0010065092, Final residual = 3.5750686e-05, No Iterations 3
GAMG:  Solving for p, Initial residual = 0.023722276, Final residual = 0.00013348234, No Iterations 4
time step continuity errors : sum local = 3.3775688e-05, global = 3.8080708e-07, cumulative = -0.00058533718
ExecutionTime = 14.121381 s  ClockTime = 14 s

Time = 79s

smoothSolver:  Solving for Ux, Initial residual = 0.0013761609, Final residual = 4.8559215e-05, No Iterations 3
smoothSolver:  Solving for Uy, Initial residual = 0.010394, Final residual = 0.00036253186, No Iterations 3
smoothSolver:  Solving for Uz, Initial residual = 0.00099818174, Final residual = 3.5472551e-05, No Iterations 3
GAMG:  Solving for p, Initial residual = 0.023742017, Final residual = 0.00013119102, No Iterations 4
time step continuity errors : sum local = 3.3314486e-05, global = 4.1007349e-07, cumulative = -0.00058492711
ExecutionTime = 14.292076 s  ClockTime = 14 s

Time = 80s

smoothSolver:  Solving for Ux, Initial residual = 0.0013691373, Final residual = 4.8328646e-05, No Iterations 3
smoothSolver:  Solving for Uy, Initial residual = 0.010260136, Final residual = 0.00035726736, No Iterations 3
smoothSolver:  Solving for Uz, Initial residual = 0.00098988922, Final residual = 3.5189255e-05, No Iterations 3
GAMG:  Solving for p, Initial residual = 0.023653098, Final residual = 0.0002304921, No Iterations 3
time step continuity errors : sum local = 5.8733419e-05, global = 7.3022225e-07, cumulative = -0.00058419689
ExecutionTime = 14.453203 s  ClockTime = 14 s

Time = 81s

smoothSolver:  Solving for Ux, Initial residual = 0.0013606439, Final residual = 4.8040047e-05, No Iterations 3
smoothSolver:  Solving for Uy, Initial residual = 0.010114574, Final residual = 0.0003516343, No Iterations 3
smoothSolver:  Solving for Uz, Initial residual = 0.00098160711, Final residual = 3.4911361e-05, No Iterations 3
GAMG:  Solving for p, Initial residual = 0.023489339, Final residual = 0.00013577059, No Iterations 4
time step continuity errors : sum local = 3.4723395e-05, global = 4.5398936e-07, cumulative = -0.0005837429
ExecutionTime = 14.623094 s  ClockTime = 15 s

Time = 82s

smoothSolver:  Solving for Ux, Initial residual = 0.0013535889, Final residual = 4.7815705e-05, No Iterations 3
smoothSolver:  Solving for Uy, Initial residual = 0.0099734586, Final residual = 0.00034621907, No Iterations 3
smoothSolver:  Solving for Uz, Initial residual = 0.0009729904, Final residual = 3.461243e-05, No Iterations 3
GAMG:  Solving for p, Initial residual = 0.023258054, Final residual = 0.00013118428, No Iterations 4
time step continuity errors : sum local = 3.3658226e-05, global = 4.0989248e-07, cumulative = -0.00058333301
ExecutionTime = 14.796519 s  ClockTime = 15 s

Time = 83s

smoothSolver:  Solving for Ux, Initial residual = 0.0013463701, Final residual = 4.7579113e-05, No Iterations 3
smoothSolver:  Solving for Uy, Initial residual = 0.0098475565, Final residual = 0.00034149835, No Iterations 3
smoothSolver:  Solving for Uz, Initial residual = 0.0009645934, Final residual = 3.4327757e-05, No Iterations 3
GAMG:  Solving for p, Initial residual = 0.023030332, Final residual = 0.0002289118, No Iterations 3
time step continuity errors : sum local = 5.8915829e-05, global = 6.013362e-07, cumulative = -0.00058273167
ExecutionTime = 14.957864 s  ClockTime = 15 s

Time = 84s

smoothSolver:  Solving for Ux, Initial residual = 0.0013379463, Final residual = 4.7305287e-05, No Iterations 3
smoothSolver:  Solving for Uy, Initial residual = 0.0097345655, Final residual = 0.00033747997, No Iterations 3
smoothSolver:  Solving for Uz, Initial residual = 0.00095670675, Final residual = 3.4071456e-05, No Iterations 3
GAMG:  Solving for p, Initial residual = 0.022795759, Final residual = 0.00013118091, No Iterations 4
time step continuity errors : sum local = 3.3876134e-05, global = 2.9844359e-07, cumulative = -0.00058243323
ExecutionTime = 15.127653 s  ClockTime = 15 s

Time = 85s

smoothSolver:  Solving for Ux, Initial residual = 0.0013317682, Final residual = 4.7109469e-05, No Iterations 3
smoothSolver:  Solving for Uy, Initial residual = 0.0096608357, Final residual = 0.00033467095, No Iterations 3
smoothSolver:  Solving for Uz, Initial residual = 0.00094903841, Final residual = 3.3818186e-05, No Iterations 3
GAMG:  Solving for p, Initial residual = 0.022802858, Final residual = 0.00012642337, No Iterations 4
time step continuity errors : sum local = 3.2754345e-05, global = 2.61245e-07, cumulative = -0.00058217198
ExecutionTime = 15.299923 s  ClockTime = 15 s

Time = 86s

smoothSolver:  Solving for Ux, Initial residual = 0.0013255791, Final residual = 4.6901003e-05, No Iterations 3
smoothSolver:  Solving for Uy, Initial residual = 0.0095995831, Final residual = 0.00033216885, No Iterations 3
smoothSolver:  Solving for Uz, Initial residual = 0.00094177012, Final residual = 3.358255e-05, No Iterations 3
GAMG:  Solving for p, Initial residual = 0.022807493, Final residual = 0.00022135424, No Iterations 3
time step continuity errors : sum local = 5.7541988e-05, global = 4.3368785e-07, cumulative = -0.00058173829
ExecutionTime = 15.461639 s  ClockTime = 15 s

Time = 87s

smoothSolver:  Solving for Ux, Initial residual = 0.0013177776, Final residual = 4.6634166e-05, No Iterations 3
smoothSolver:  Solving for Uy, Initial residual = 0.0095185073, Final residual = 0.00032924141, No Iterations 3
smoothSolver:  Solving for Uz, Initial residual = 0.00093455272, Final residual = 3.3356802e-05, No Iterations 3
GAMG:  Solving for p, Initial residual = 0.022658229, Final residual = 0.00012091771, No Iterations 4
time step continuity errors : sum local = 3.1541059e-05, global = 3.0503721e-07, cumulative = -0.00058143326
ExecutionTime = 15.63125 s  ClockTime = 16 s

Time = 88s

smoothSolver:  Solving for Ux, Initial residual = 0.0013120612, Final residual = 4.6460774e-05, No Iterations 3
smoothSolver:  Solving for Uy, Initial residual = 0.009450276, Final residual = 0.0003265824, No Iterations 3
smoothSolver:  Solving for Uz, Initial residual = 0.00092741369, Final residual = 3.3127736e-05, No Iterations 3
GAMG:  Solving for p, Initial residual = 0.022549323, Final residual = 0.00022524476, No Iterations 3
time step continuity errors : sum local = 5.8956026e-05, global = 5.5672172e-07, cumulative = -0.00058087653
ExecutionTime = 15.793102 s  ClockTime = 16 s

Time = 89s

smoothSolver:  Solving for Ux, Initial residual = 0.0013041898, Final residual = 4.6238166e-05, No Iterations 3
smoothSolver:  Solving for Uy, Initial residual = 0.009351447, Final residual = 0.00032303642, No Iterations 3
smoothSolver:  Solving for Uz, Initial residual = 0.00091986573, Final residual = 3.2894814e-05, No Iterations 3
GAMG:  Solving for p, Initial residual = 0.022337741, Final residual = 0.00012790251, No Iterations 4
time step continuity errors : sum local = 3.3589059e-05, global = 3.7573324e-07, cumulative = -0.0005805008
ExecutionTime = 15.964016 s  ClockTime = 16 s

Time = 90s

smoothSolver:  Solving for Ux, Initial residual = 0.0012976109, Final residual = 4.6062469e-05, No Iterations 3
smoothSolver:  Solving for Uy, Initial residual = 0.0092469928, Final residual = 0.00031928165, No Iterations 3
smoothSolver:  Solving for Uz, Initial residual = 0.00091194696, Final residual = 3.2633855e-05, No Iterations 3
GAMG:  Solving for p, Initial residual = 0.022104425, Final residual = 0.00012593177, No Iterations 4
time step continuity errors : sum local = 3.3173941e-05, global = 3.9638207e-07, cumulative = -0.00058010442
ExecutionTime = 16.136833 s  ClockTime = 16 s

Time = 91s

smoothSolver:  Solving for Ux, Initial residual = 0.0012894348, Final residual = 4.5863519e-05, No Iterations 3
smoothSolver:  Solving for Uy, Initial residual = 0.0091248399, Final residual = 0.00031494033, No Iterations 3
smoothSolver:  Solving for Uz, Initial residual = 0.00090370153, Final residual = 3.2363562e-05, No Iterations 3
GAMG:  Solving for p, Initial residual = 0.021911507, Final residual = 0.00012116951, No Iterations 4
time step continuity errors : sum local = 3.2006701e-05, global = 3.7409563e-07, cumulative = -0.00057973032
ExecutionTime = 16.309782 s  ClockTime = 16 s

Time = 92s

smoothSolver:  Solving for Ux, Initial residual = 0.0012803872, Final residual = 4.5624835e-05, No Iterations 3
smoothSolver:  Solving for Uy, Initial residual = 0.0090035008, Final residual = 0.00031046046, No Iterations 3
smoothSolver:  Solving for Uz, Initial residual = 0.00089544778, Final residual = 3.2096584e-05, No Iterations 3
GAMG:  Solving for p, Initial residual = 0.021808879, Final residual = 0.00021797086, No Iterations 3
time step continuity errors : sum local = 5.7739903e-05, global = 5.3649075e-07, cumulative = -0.00057919383
ExecutionTime = 16.471674 s  ClockTime = 16 s

Time = 93s

smoothSolver:  Solving for Ux, Initial residual = 0.0012706289, Final residual = 4.536927e-05, No Iterations 3
smoothSolver:  Solving for Uy, Initial residual = 0.0088934273, Final residual = 0.00030646346, No Iterations 3
smoothSolver:  Solving for Uz, Initial residual = 0.00088778732, Final residual = 3.185759e-05, No Iterations 3
GAMG:  Solving for p, Initial residual = 0.021680251, Final residual = 0.00012294812, No Iterations 4
time step continuity errors : sum local = 3.2672652e-05, global = 2.7704295e-07, cumulative = -0.00057891679
ExecutionTime = 16.643169 s  ClockTime = 17 s

Time = 94s

smoothSolver:  Solving for Ux, Initial residual = 0.0012625214, Final residual = 4.5170734e-05, No Iterations 3
smoothSolver:  Solving for Uy, Initial residual = 0.0088211962, Final residual = 0.00030370858, No Iterations 3
smoothSolver:  Solving for Uz, Initial residual = 0.00088035012, Final residual = 3.1617483e-05, No Iterations 3
GAMG:  Solving for p, Initial residual = 0.02150635, Final residual = 0.00011792043, No Iterations 4
time step continuity errors : sum local = 3.1426494e-05, global = 2.3769927e-07, cumulative = -0.00057867909
ExecutionTime = 16.81503 s  ClockTime = 17 s

Time = 95s

smoothSolver:  Solving for Ux, Initial residual = 0.0012555537, Final residual = 4.4990182e-05, No Iterations 3
smoothSolver:  Solving for Uy, Initial residual = 0.0087682062, Final residual = 0.00030182302, No Iterations 3
smoothSolver:  Solving for Uz, Initial residual = 0.00087350987, Final residual = 3.1394668e-05, No Iterations 3
GAMG:  Solving for p, Initial residual = 0.021261223, Final residual = 0.00011086018, No Iterations 4
time step continuity errors : sum local = 2.9630792e-05, global = 2.1450884e-07, cumulative = -0.00057846458
ExecutionTime = 16.983511 s  ClockTime = 17 s

Time = 96s

smoothSolver:  Solving for Ux, Initial residual = 0.0012489322, Final residual = 4.4817035e-05, No Iterations 3
smoothSolver:  Solving for Uy, Initial residual = 0.0087180302, Final residual = 0.00030022575, No Iterations 3
smoothSolver:  Solving for Uz, Initial residual = 0.00086699011, Final residual = 3.118699e-05, No Iterations 3
GAMG:  Solving for p, Initial residual = 0.021070214, Final residual = 0.00020439764, No Iterations 3
time step continuity errors : sum local = 5.479564e-05, global = 3.5085151e-07, cumulative = -0.00057811373
ExecutionTime = 17.144489 s  ClockTime = 17 s

Time = 97s

smoothSolver:  Solving for Ux, Initial residual = 0.0012410592, Final residual = 4.4600335e-05, No Iterations 3
smoothSolver:  Solving for Uy, Initial residual = 0.0086505503, Final residual = 0.00029800991, No Iterations 3
smoothSolver:  Solving for Uz, Initial residual = 0.00086044291, Final residual = 3.098535e-05, No Iterations 3
GAMG:  Solving for p, Initial residual = 0.020865091, Final residual = 0.00011235456, No Iterations 4
time step continuity errors : sum local = 3.0215147e-05, global = 2.4996278e-07, cumulative = -0.00057786377
ExecutionTime = 17.313726 s  ClockTime = 17 s

Time = 98s

smoothSolver:  Solving for Ux, Initial residual = 0.0012348798, Final residual = 4.444451e-05, No Iterations 3
smoothSolver:  Solving for Uy, Initial residual = 0.0085915897, Final residual = 0.00029609707, No Iterations 3
smoothSolver:  Solving for Uz, Initial residual = 0.00085373795, Final residual = 3.0768037e-05, No Iterations 3
GAMG:  Solving for p, Initial residual = 0.020673389, Final residual = 0.00011299779, No Iterations 4
time step continuity errors : sum local = 3.0482822e-05, global = 2.7393425e-07, cumulative = -0.00057758983
ExecutionTime = 17.484493 s  ClockTime = 17 s

Time = 99s

smoothSolver:  Solving for Ux, Initial residual = 0.0012281103, Final residual = 4.4257442e-05, No Iterations 3
smoothSolver:  Solving for Uy, Initial residual = 0.0085191447, Final residual = 0.00029356913, No Iterations 3
smoothSolver:  Solving for Uz, Initial residual = 0.00084681575, Final residual = 3.0540047e-05, No Iterations 3
GAMG:  Solving for p, Initial residual = 0.020566704, Final residual = 0.00011178787, No Iterations 4
time step continuity errors : sum local = 3.0250634e-05, global = 2.8725022e-07, cumulative = -0.00057730258
ExecutionTime = 17.654532 s  ClockTime = 18 s

Time = 100s

smoothSolver:  Solving for Ux, Initial residual = 0.0012205766, Final residual = 4.402679e-05, No Iterations 3
smoothSolver:  Solving for Uy, Initial residual = 0.0084409711, Final residual = 0.00029064221, No Iterations 3
smoothSolver:  Solving for Uz, Initial residual = 0.00083991826, Final residual = 3.0310813e-05, No Iterations 3
GAMG:  Solving for p, Initial residual = 0.020514611, Final residual = 0.00011023274, No Iterations 4
time step continuity errors : sum local = 2.9917617e-05, global = 2.8301814e-07, cumulative = -0.00057701956
ExecutionTime = 17.824998 s  ClockTime = 18 s

Time = 101s

smoothSolver:  Solving for Ux, Initial residual = 0.0012127304, Final residual = 4.3773049e-05, No Iterations 3
smoothSolver:  Solving for Uy, Initial residual = 0.0083680467, Final residual = 0.0002878692, No Iterations 3
smoothSolver:  Solving for Uz, Initial residual = 0.00083323873, Final residual = 3.00898e-05, No Iterations 3
GAMG:  Solving for p, Initial residual = 0.020422161, Final residual = 0.00010915092, No Iterations 4
time step continuity errors : sum local = 2.9705855e-05, global = 2.6371834e-07, cumulative = -0.00057675585
ExecutionTime = 17.994079 s  ClockTime = 18 s

Time = 102s

smoothSolver:  Solving for Ux, Initial residual = 0.0012051046, Final residual = 4.3529396e-05, No Iterations 3
smoothSolver:  Solving for Uy, Initial residual = 0.0083050462, Final residual = 0.00028547539, No Iterations 3
smoothSolver:  Solving for Uz, Initial residual = 0.00082686531, Final residual = 2.9879339e-05, No Iterations 3
GAMG:  Solving for p, Initial residual = 0.020217475, Final residual = 0.00010880894, No Iterations 4
time step continuity errors : sum local = 2.9688321e-05, global = 2.4050893e-07, cumulative = -0.00057651534
ExecutionTime = 18.166577 s  ClockTime = 18 s

Time = 103s

smoothSolver:  Solving for Ux, Initial residual = 0.0011979121, Final residual = 4.3267391e-05, No Iterations 3
smoothSolver:  Solving for Uy, Initial residual = 0.0082429643, Final residual = 0.00028344152, No Iterations 3
smoothSolver:  Solving for Uz, Initial residual = 0.00082066113, Final residual = 2.9673158e-05, No Iterations 3
GAMG:  Solving for p, Initial residual = 0.020060909, Final residual = 0.00010788874, No Iterations 4
time step continuity errors : sum local = 2.9513101e-05, global = 2.1060119e-07, cumulative = -0.00057630474
ExecutionTime = 18.336148 s  ClockTime = 18 s

Time = 104s

smoothSolver:  Solving for Ux, Initial residual = 0.0011906758, Final residual = 4.3019193e-05, No Iterations 3
smoothSolver:  Solving for Uy, Initial residual = 0.0081809604, Final residual = 0.00028146995, No Iterations 3
smoothSolver:  Solving for Uz, Initial residual = 0.00081432904, Final residual = 2.9456866e-05, No Iterations 3
GAMG:  Solving for p, Initial residual = 0.019769177, Final residual = 0.00010532189, No Iterations 4
time step continuity errors : sum local = 2.8882761e-05, global = 2.0058031e-07, cumulative = -0.00057610416
ExecutionTime = 18.507005 s  ClockTime = 19 s

Time = 105s

smoothSolver:  Solving for Ux, Initial residual = 0.0011835527, Final residual = 4.2773208e-05, No Iterations 3
smoothSolver:  Solving for Uy, Initial residual = 0.0081104799, Final residual = 0.00027916758, No Iterations 3
smoothSolver:  Solving for Uz, Initial residual = 0.00080781074, Final residual = 2.9225689e-05, No Iterations 3
GAMG:  Solving for p, Initial residual = 0.01954044, Final residual = 0.00019446727, No Iterations 3
time step continuity errors : sum local = 5.3465727e-05, global = 3.5631162e-07, cumulative = -0.00057574784
ExecutionTime = 18.668322 s  ClockTime = 19 s

Time = 106s

smoothSolver:  Solving for Ux, Initial residual = 0.0011760994, Final residual = 4.2522677e-05, No Iterations 3
smoothSolver:  Solving for Uy, Initial residual = 0.0080285294, Final residual = 0.00027636883, No Iterations 3
smoothSolver:  Solving for Uz, Initial residual = 0.00080137234, Final residual = 2.8998533e-05, No Iterations 3
GAMG:  Solving for p, Initial residual = 0.019371242, Final residual = 0.00011119877, No Iterations 4
time step continuity errors : sum local = 3.0659342e-05, global = 2.5178795e-07, cumulative = -0.00057549606
ExecutionTime = 18.84304 s  ClockTime = 19 s

Time = 107s

smoothSolver:  Solving for Ux, Initial residual = 0.0011695788, Final residual = 4.2307436e-05, No Iterations 3
smoothSolver:  Solving for Uy, Initial residual = 0.007968079, Final residual = 0.00027444431, No Iterations 3
smoothSolver:  Solving for Uz, Initial residual = 0.00079487678, Final residual = 2.876373e-05, No Iterations 3
GAMG:  Solving for p, Initial residual = 0.019228456, Final residual = 0.00010858367, No Iterations 4
time step continuity errors : sum local = 3.0010584e-05, global = 2.65235e-07, cumulative = -0.00057523082
ExecutionTime = 19.013999 s  ClockTime = 19 s

Time = 108s

smoothSolver:  Solving for Ux, Initial residual = 0.0011632998, Final residual = 4.207521e-05, No Iterations 3
smoothSolver:  Solving for Uy, Initial residual = 0.0079133735, Final residual = 0.00027280206, No Iterations 3
smoothSolver:  Solving for Uz, Initial residual = 0.00078875553, Final residual = 2.8543789e-05, No Iterations 3
GAMG:  Solving for p, Initial residual = 0.019077792, Final residual = 0.00010269913, No Iterations 4
time step continuity errors : sum local = 2.8455956e-05, global = 2.7194811e-07, cumulative = -0.00057495887
ExecutionTime = 19.185241 s  ClockTime = 19 s

Time = 109s

smoothSolver:  Solving for Ux, Initial residual = 0.0011568215, Final residual = 4.1833485e-05, No Iterations 3
smoothSolver:  Solving for Uy, Initial residual = 0.0078636607, Final residual = 0.00027137458, No Iterations 3
smoothSolver:  Solving for Uz, Initial residual = 0.00078300537, Final residual = 2.833745e-05, No Iterations 3
GAMG:  Solving for p, Initial residual = 0.018934871, Final residual = 0.00018858503, No Iterations 3
time step continuity errors : sum local = 5.2390304e-05, global = 4.2314638e-07, cumulative = -0.00057453573
ExecutionTime = 19.346443 s  ClockTime = 19 s

Time = 110s

smoothSolver:  Solving for Ux, Initial residual = 0.0011501254, Final residual = 4.1594803e-05, No Iterations 3
smoothSolver:  Solving for Uy, Initial residual = 0.0078072651, Final residual = 0.00026969511, No Iterations 3
smoothSolver:  Solving for Uz, Initial residual = 0.00077756584, Final residual = 2.8144136e-05, No Iterations 3
GAMG:  Solving for p, Initial residual = 0.018765764, Final residual = 0.00010634274, No Iterations 4
time step continuity errors : sum local = 2.9620625e-05, global = 2.6804788e-07, cumulative = -0.00057426768
ExecutionTime = 19.517532 s  ClockTime = 20 s

Time = 111s

smoothSolver:  Solving for Ux, Initial residual = 0.0011443451, Final residual = 4.13793e-05, No Iterations 3
smoothSolver:  Solving for Uy, Initial residual = 0.0077719597, Final residual = 0.00026877834, No Iterations 3
smoothSolver:  Solving for Uz, Initial residual = 0.00077218239, Final residual = 2.7943124e-05, No Iterations 3
GAMG:  Solving for p, Initial residual = 0.018734567, Final residual = 0.00010698383, No Iterations 4
time step continuity errors : sum local = 2.9870799e-05, global = 2.3650625e-07, cumulative = -0.00057403117
ExecutionTime = 19.68681 s  ClockTime = 20 s

Time = 112s

smoothSolver:  Solving for Ux, Initial residual = 0.0011382778, Final residual = 4.1157771e-05, No Iterations 3
smoothSolver:  Solving for Uy, Initial residual = 0.0077247979, Final residual = 0.00026737947, No Iterations 3
smoothSolver:  Solving for Uz, Initial residual = 0.00076658457, Final residual = 2.7738633e-05, No Iterations 3
GAMG:  Solving for p, Initial residual = 0.018623586, Final residual = 0.00010432438, No Iterations 4
time step continuity errors : sum local = 2.919811e-05, global = 2.0405509e-07, cumulative = -0.00057382712
ExecutionTime = 19.857743 s  ClockTime = 20 s

Time = 113s

smoothSolver:  Solving for Ux, Initial residual = 0.0011318224, Final residual = 4.0924174e-05, No Iterations 3
smoothSolver:  Solving for Uy, Initial residual = 0.0076590812, Final residual = 0.00026517257, No Iterations 3
smoothSolver:  Solving for Uz, Initial residual = 0.00076070735, Final residual = 2.7523132e-05, No Iterations 3
GAMG:  Solving for p, Initial residual = 0.018465589, Final residual = 0.00010056157, No Iterations 4
time step continuity errors : sum local = 2.8209937e-05, global = 1.6522774e-07, cumulative = -0.00057366189
ExecutionTime = 20.028155 s  ClockTime = 20 s

Time = 114s

smoothSolver:  Solving for Ux, Initial residual = 0.001125235, Final residual = 4.0673994e-05, No Iterations 3
smoothSolver:  Solving for Uy, Initial residual = 0.0075809099, Final residual = 0.00026258052, No Iterations 3
smoothSolver:  Solving for Uz, Initial residual = 0.00075465152, Final residual = 2.7301633e-05, No Iterations 3
GAMG:  Solving for p, Initial residual = 0.018323139, Final residual = 0.0001812107, No Iterations 3
time step continuity errors : sum local = 5.0949739e-05, global = 2.5509683e-07, cumulative = -0.00057340679
ExecutionTime = 20.189151 s  ClockTime = 20 s

Time = 115s

smoothSolver:  Solving for Ux, Initial residual = 0.0011190169, Final residual = 4.0426618e-05, No Iterations 3
smoothSolver:  Solving for Uy, Initial residual = 0.0074978182, Final residual = 0.00025992102, No Iterations 3
smoothSolver:  Solving for Uz, Initial residual = 0.00074884621, Final residual = 2.7094451e-05, No Iterations 3
GAMG:  Solving for p, Initial residual = 0.018164674, Final residual = 0.00010877923, No Iterations 4
time step continuity errors : sum local = 3.0661623e-05, global = 1.4596892e-07, cumulative = -0.00057326082
ExecutionTime = 20.363362 s  ClockTime = 20 s

Time = 116s

smoothSolver:  Solving for Ux, Initial residual = 0.0011132166, Final residual = 4.0185776e-05, No Iterations 3
smoothSolver:  Solving for Uy, Initial residual = 0.0074437282, Final residual = 0.00025832824, No Iterations 3
smoothSolver:  Solving for Uz, Initial residual = 0.0007431137, Final residual = 2.6881808e-05, No Iterations 3
GAMG:  Solving for p, Initial residual = 0.018017523, Final residual = 0.00010708202, No Iterations 4
time step continuity errors : sum local = 3.0242621e-05, global = 1.63594e-07, cumulative = -0.00057309723
ExecutionTime = 20.537576 s  ClockTime = 21 s

Time = 117s

smoothSolver:  Solving for Ux, Initial residual = 0.0011075022, Final residual = 3.9959545e-05, No Iterations 3
smoothSolver:  Solving for Uy, Initial residual = 0.0073986534, Final residual = 0.00025703159, No Iterations 3
smoothSolver:  Solving for Uz, Initial residual = 0.00073764693, Final residual = 2.6685508e-05, No Iterations 3
GAMG:  Solving for p, Initial residual = 0.017797414, Final residual = 0.00010071337, No Iterations 4
time step continuity errors : sum local = 2.8501859e-05, global = 1.7769947e-07, cumulative = -0.00057291953
ExecutionTime = 20.710484 s  ClockTime = 21 s

Time = 118s

smoothSolver:  Solving for Ux, Initial residual = 0.0011018124, Final residual = 3.972683e-05, No Iterations 3
smoothSolver:  Solving for Uy, Initial residual = 0.0073534147, Final residual = 0.00025575643, No Iterations 3
smoothSolver:  Solving for Uz, Initial residual = 0.00073246864, Final residual = 2.6500169e-05, No Iterations 3
GAMG:  Solving for p, Initial residual = 0.017608994, Final residual = 9.4185257e-05, No Iterations 4
time step continuity errors : sum local = 2.6711764e-05, global = 2.0249028e-07, cumulative = -0.00057271704
ExecutionTime = 20.881004 s  ClockTime = 21 s

Time = 119s

smoothSolver:  Solving for Ux, Initial residual = 0.0010963068, Final residual = 3.9495795e-05, No Iterations 3
smoothSolver:  Solving for Uy, Initial residual = 0.0073077064, Final residual = 0.00025439447, No Iterations 3
smoothSolver:  Solving for Uz, Initial residual = 0.0007274834, Final residual = 2.6325975e-05, No Iterations 3
GAMG:  Solving for p, Initial residual = 0.017449874, Final residual = 9.0586659e-05, No Iterations 4
time step continuity errors : sum local = 2.5749342e-05, global = 2.1201156e-07, cumulative = -0.00057250503
ExecutionTime = 21.05142 s  ClockTime = 21 s

Time = 120s

smoothSolver:  Solving for Ux, Initial residual = 0.0010911539, Final residual = 3.9270982e-05, No Iterations 3
smoothSolver:  Solving for Uy, Initial residual = 0.0072635327, Final residual = 0.00025311248, No Iterations 3
smoothSolver:  Solving for Uz, Initial residual = 0.00072267116, Final residual = 2.6160851e-05, No Iterations 3
GAMG:  Solving for p, Initial residual = 0.017260484, Final residual = 8.9492764e-05, No Iterations 4
time step continuity errors : sum local = 2.5496361e-05, global = 2.1437103e-07, cumulative = -0.00057229066
ExecutionTime = 21.224078 s  ClockTime = 21 s

Time = 121s

smoothSolver:  Solving for Ux, Initial residual = 0.0010862211, Final residual = 3.904979e-05, No Iterations 3
smoothSolver:  Solving for Uy, Initial residual = 0.0072209756, Final residual = 0.00025195013, No Iterations 3
smoothSolver:  Solving for Uz, Initial residual = 0.000718012, Final residual = 2.6001543e-05, No Iterations 3
GAMG:  Solving for p, Initial residual = 0.017078146, Final residual = 9.0784967e-05, No Iterations 4
time step continuity errors : sum local = 2.5922913e-05, global = 2.0789872e-07, cumulative = -0.00057208276
ExecutionTime = 21.396247 s  ClockTime = 21 s

Time = 122s

smoothSolver:  Solving for Ux, Initial residual = 0.0010813628, Final residual = 3.882382e-05, No Iterations 3
smoothSolver:  Solving for Uy, Initial residual = 0.0071814171, Final residual = 0.00025074818, No Iterations 3
smoothSolver:  Solving for Uz, Initial residual = 0.00071339571, Final residual = 2.5841808e-05, No Iterations 3
GAMG:  Solving for p, Initial residual = 0.016965065, Final residual = 9.3649252e-05, No Iterations 4
time step continuity errors : sum local = 2.6799426e-05, global = 1.965185e-07, cumulative = -0.00057188624
ExecutionTime = 21.566985 s  ClockTime = 22 s

Time = 123s

smoothSolver:  Solving for Ux, Initial residual = 0.0010766344, Final residual = 3.8604011e-05, No Iterations 3
smoothSolver:  Solving for Uy, Initial residual = 0.0071464043, Final residual = 0.00024962704, No Iterations 3
smoothSolver:  Solving for Uz, Initial residual = 0.00070887932, Final residual = 2.5685294e-05, No Iterations 3
GAMG:  Solving for p, Initial residual = 0.016927141, Final residual = 9.6523783e-05, No Iterations 4
time step continuity errors : sum local = 2.7681492e-05, global = 1.7919838e-07, cumulative = -0.00057170704
ExecutionTime = 21.737937 s  ClockTime = 22 s

Time = 124s

smoothSolver:  Solving for Ux, Initial residual = 0.0010719948, Final residual = 3.8382808e-05, No Iterations 3
smoothSolver:  Solving for Uy, Initial residual = 0.0071147447, Final residual = 0.00024871295, No Iterations 3
smoothSolver:  Solving for Uz, Initial residual = 0.00070457533, Final residual = 2.5533672e-05, No Iterations 3
GAMG:  Solving for p, Initial residual = 0.016866366, Final residual = 9.8501443e-05, No Iterations 4
time step continuity errors : sum local = 2.8306902e-05, global = 1.7271836e-07, cumulative = -0.00057153432
ExecutionTime = 21.907542 s  ClockTime = 22 s

Time = 125s

smoothSolver:  Solving for Ux, Initial residual = 0.0010674571, Final residual = 3.8172456e-05, No Iterations 3
smoothSolver:  Solving for Uy, Initial residual = 0.0070847088, Final residual = 0.00024778772, No Iterations 3
smoothSolver:  Solving for Uz, Initial residual = 0.0007003887, Final residual = 2.5381761e-05, No Iterations 3
GAMG:  Solving for p, Initial residual = 0.016793926, Final residual = 9.8749999e-05, No Iterations 4
time step continuity errors : sum local = 2.8433984e-05, global = 1.7127129e-07, cumulative = -0.00057136305
ExecutionTime = 22.077594 s  ClockTime = 22 s

Time = 126s

smoothSolver:  Solving for Ux, Initial residual = 0.001062894, Final residual = 3.797095e-05, No Iterations 3
smoothSolver:  Solving for Uy, Initial residual = 0.0070517027, Final residual = 0.00024674417, No Iterations 3
smoothSolver:  Solving for Uz, Initial residual = 0.00069624333, Final residual = 2.5231108e-05, No Iterations 3
GAMG:  Solving for p, Initial residual = 0.016729358, Final residual = 9.7791345e-05, No Iterations 4
time step continuity errors : sum local = 2.8212517e-05, global = 1.7672276e-07, cumulative = -0.00057118633
ExecutionTime = 22.247928 s  ClockTime = 22 s

Time = 127s

smoothSolver:  Solving for Ux, Initial residual = 0.0010584407, Final residual = 3.7769214e-05, No Iterations 3
smoothSolver:  Solving for Uy, Initial residual = 0.0070182353, Final residual = 0.00024560157, No Iterations 3
smoothSolver:  Solving for Uz, Initial residual = 0.0006921576, Final residual = 2.5081445e-05, No Iterations 3
GAMG:  Solving for p, Initial residual = 0.016670528, Final residual = 9.6182456e-05, No Iterations 4
time step continuity errors : sum local = 2.7802995e-05, global = 1.8581062e-07, cumulative = -0.00057100052
ExecutionTime = 22.419115 s  ClockTime = 22 s

Time = 128s

smoothSolver:  Solving for Ux, Initial residual = 0.0010541679, Final residual = 3.7575939e-05, No Iterations 3
smoothSolver:  Solving for Uy, Initial residual = 0.0069832476, Final residual = 0.0002444283, No Iterations 3
smoothSolver:  Solving for Uz, Initial residual = 0.00068804631, Final residual = 2.4932871e-05, No Iterations 3
GAMG:  Solving for p, Initial residual = 0.0165804, Final residual = 9.5342447e-05, No Iterations 4
time step continuity errors : sum local = 2.7612155e-05, global = 1.9549266e-07, cumulative = -0.00057080503
ExecutionTime = 22.589592 s  ClockTime = 23 s

Time = 129s

smoothSolver:  Solving for Ux, Initial residual = 0.0010500011, Final residual = 3.7377336e-05, No Iterations 3
smoothSolver:  Solving for Uy, Initial residual = 0.0069453051, Final residual = 0.00024301371, No Iterations 3
smoothSolver:  Solving for Uz, Initial residual = 0.00068381503, Final residual = 2.4782803e-05, No Iterations 3
GAMG:  Solving for p, Initial residual = 0.016435607, Final residual = 9.6044517e-05, No Iterations 4
time step continuity errors : sum local = 2.7867712e-05, global = 2.034126e-07, cumulative = -0.00057060161
ExecutionTime = 22.761613 s  ClockTime = 23 s

Time = 130s

smoothSolver:  Solving for Ux, Initial residual = 0.0010457324, Final residual = 3.718151e-05, No Iterations 3
smoothSolver:  Solving for Uy, Initial residual = 0.0069013426, Final residual = 0.00024133881, No Iterations 3
[...]
GAMG:  Solving for p, Initial residual = 1.0603449e-05, Final residual = 7.0437224e-08, No Iterations 3
time step continuity errors : sum local = 2.6351342e-08, global = 4.2942182e-10, cumulative = -0.0005998185
ExecutionTime = 561.84647 s  ClockTime = 570 s

Time = 3447s

smoothSolver:  Solving for Ux, Initial residual = 5.0907311e-07, Final residual = 1.8261304e-08, No Iterations 3
smoothSolver:  Solving for Uy, Initial residual = 3.4026535e-06, Final residual = 1.2322439e-07, No Iterations 3
smoothSolver:  Solving for Uz, Initial residual = 2.0079392e-07, Final residual = 7.0422395e-09, No Iterations 3
GAMG:  Solving for p, Initial residual = 1.0587278e-05, Final residual = 7.0314391e-08, No Iterations 3
time step continuity errors : sum local = 2.6305389e-08, global = 4.4722856e-10, cumulative = -0.00059981805
ExecutionTime = 562.00716 s  ClockTime = 570 s

Time = 3448s

smoothSolver:  Solving for Ux, Initial residual = 5.0805601e-07, Final residual = 1.8234111e-08, No Iterations 3
smoothSolver:  Solving for Uy, Initial residual = 3.3959962e-06, Final residual = 1.2301273e-07, No Iterations 3
smoothSolver:  Solving for Uz, Initial residual = 2.0047098e-07, Final residual = 7.0367061e-09, No Iterations 3
GAMG:  Solving for p, Initial residual = 1.0571364e-05, Final residual = 7.0208491e-08, No Iterations 3
time step continuity errors : sum local = 2.6265771e-08, global = 4.6526544e-10, cumulative = -0.00059981758
ExecutionTime = 562.16775 s  ClockTime = 570 s

Time = 3449s

smoothSolver:  Solving for Ux, Initial residual = 5.0707647e-07, Final residual = 1.82096e-08, No Iterations 3
smoothSolver:  Solving for Uy, Initial residual = 3.3893883e-06, Final residual = 1.228242e-07, No Iterations 3
smoothSolver:  Solving for Uz, Initial residual = 2.0016248e-07, Final residual = 7.0328708e-09, No Iterations 3
GAMG:  Solving for p, Initial residual = 1.0556734e-05, Final residual = 7.0117957e-08, No Iterations 3
time step continuity errors : sum local = 2.6231902e-08, global = 4.8310718e-10, cumulative = -0.0005998171
ExecutionTime = 562.32886 s  ClockTime = 570 s

Time = 3450s

smoothSolver:  Solving for Ux, Initial residual = 5.0615153e-07, Final residual = 1.8190182e-08, No Iterations 3
smoothSolver:  Solving for Uy, Initial residual = 3.3829388e-06, Final residual = 1.2264343e-07, No Iterations 3
smoothSolver:  Solving for Uz, Initial residual = 1.998664e-07, Final residual = 7.02904e-09, No Iterations 3
GAMG:  Solving for p, Initial residual = 1.0542546e-05, Final residual = 7.0050026e-08, No Iterations 3
time step continuity errors : sum local = 2.6206489e-08, global = 5.0020059e-10, cumulative = -0.0005998166
ExecutionTime = 562.4908 s  ClockTime = 571 s

Time = 3451s

smoothSolver:  Solving for Ux, Initial residual = 5.0533228e-07, Final residual = 1.8179002e-08, No Iterations 3
smoothSolver:  Solving for Uy, Initial residual = 3.3765785e-06, Final residual = 1.2249668e-07, No Iterations 3
smoothSolver:  Solving for Uz, Initial residual = 1.9957653e-07, Final residual = 7.0264511e-09, No Iterations 3
GAMG:  Solving for p, Initial residual = 1.052772e-05, Final residual = 7.0000938e-08, No Iterations 3
time step continuity errors : sum local = 2.6188125e-08, global = 5.0414894e-10, cumulative = -0.0005998161
ExecutionTime = 562.65322 s  ClockTime = 571 s

Time = 3452s

smoothSolver:  Solving for Ux, Initial residual = 5.0454403e-07, Final residual = 1.8171579e-08, No Iterations 3
smoothSolver:  Solving for Uy, Initial residual = 3.370153e-06, Final residual = 1.2234469e-07, No Iterations 3
smoothSolver:  Solving for Uz, Initial residual = 1.9930554e-07, Final residual = 7.0246432e-09, No Iterations 3
GAMG:  Solving for p, Initial residual = 1.0513591e-05, Final residual = 6.9969098e-08, No Iterations 3
time step continuity errors : sum local = 2.6176214e-08, global = 5.0932211e-10, cumulative = -0.00059981559
ExecutionTime = 562.81346 s  ClockTime = 571 s

Time = 3453s

smoothSolver:  Solving for Ux, Initial residual = 5.037667e-07, Final residual = 1.8167024e-08, No Iterations 3
smoothSolver:  Solving for Uy, Initial residual = 3.3636757e-06, Final residual = 1.2219017e-07, No Iterations 3
smoothSolver:  Solving for Uz, Initial residual = 1.9905833e-07, Final residual = 7.0231002e-09, No Iterations 3
GAMG:  Solving for p, Initial residual = 1.0500183e-05, Final residual = 6.9956844e-08, No Iterations 3
time step continuity errors : sum local = 2.617163e-08, global = 5.0899365e-10, cumulative = -0.00059981508
ExecutionTime = 562.9754 s  ClockTime = 571 s

Time = 3454s

smoothSolver:  Solving for Ux, Initial residual = 5.0300131e-07, Final residual = 1.8162407e-08, No Iterations 3
smoothSolver:  Solving for Uy, Initial residual = 3.3574205e-06, Final residual = 1.2201064e-07, No Iterations 3
smoothSolver:  Solving for Uz, Initial residual = 1.9881024e-07, Final residual = 7.0216742e-09, No Iterations 3
GAMG:  Solving for p, Initial residual = 1.0487996e-05, Final residual = 6.9968782e-08, No Iterations 3
time step continuity errors : sum local = 2.6176096e-08, global = 5.0314712e-10, cumulative = -0.00059981457
ExecutionTime = 563.13806 s  ClockTime = 571 s

Time = 3455s

smoothSolver:  Solving for Ux, Initial residual = 5.0227755e-07, Final residual = 1.815581e-08, No Iterations 3
smoothSolver:  Solving for Uy, Initial residual = 3.3511891e-06, Final residual = 1.2182582e-07, No Iterations 3
smoothSolver:  Solving for Uz, Initial residual = 1.9859333e-07, Final residual = 7.0211018e-09, No Iterations 3
GAMG:  Solving for p, Initial residual = 1.047518e-05, Final residual = 7.003167e-08, No Iterations 3
time step continuity errors : sum local = 2.6199624e-08, global = 5.0183261e-10, cumulative = -0.00059981407
ExecutionTime = 563.29955 s  ClockTime = 571 s

Time = 3456s

smoothSolver:  Solving for Ux, Initial residual = 5.0160049e-07, Final residual = 1.8149547e-08, No Iterations 3
smoothSolver:  Solving for Uy, Initial residual = 3.3451353e-06, Final residual = 1.2163592e-07, No Iterations 3
smoothSolver:  Solving for Uz, Initial residual = 1.983805e-07, Final residual = 7.0201878e-09, No Iterations 3
GAMG:  Solving for p, Initial residual = 1.0462583e-05, Final residual = 7.0087806e-08, No Iterations 3
time step continuity errors : sum local = 2.6220625e-08, global = 4.9692654e-10, cumulative = -0.00059981358
ExecutionTime = 563.4593 s  ClockTime = 572 s

Time = 3457s

smoothSolver:  Solving for Ux, Initial residual = 5.0099342e-07, Final residual = 1.814417e-08, No Iterations 3
smoothSolver:  Solving for Uy, Initial residual = 3.338945e-06, Final residual = 1.2144496e-07, No Iterations 3
smoothSolver:  Solving for Uz, Initial residual = 1.9819008e-07, Final residual = 7.0187302e-09, No Iterations 3
GAMG:  Solving for p, Initial residual = 1.0450225e-05, Final residual = 7.0164454e-08, No Iterations 3
time step continuity errors : sum local = 2.62493e-08, global = 4.9223399e-10, cumulative = -0.00059981308
ExecutionTime = 563.62091 s  ClockTime = 572 s

Time = 3458s

smoothSolver:  Solving for Ux, Initial residual = 5.0036188e-07, Final residual = 1.8137439e-08, No Iterations 3
smoothSolver:  Solving for Uy, Initial residual = 3.332812e-06, Final residual = 1.2125005e-07, No Iterations 3
smoothSolver:  Solving for Uz, Initial residual = 1.9800158e-07, Final residual = 7.0175878e-09, No Iterations 3
GAMG:  Solving for p, Initial residual = 1.0437358e-05, Final residual = 7.0239604e-08, No Iterations 3
time step continuity errors : sum local = 2.6277415e-08, global = 4.9008931e-10, cumulative = -0.00059981259
ExecutionTime = 563.78149 s  ClockTime = 572 s

Time = 3459s

smoothSolver:  Solving for Ux, Initial residual = 4.9970677e-07, Final residual = 1.8131165e-08, No Iterations 3
smoothSolver:  Solving for Uy, Initial residual = 3.3267407e-06, Final residual = 1.2103792e-07, No Iterations 3
smoothSolver:  Solving for Uz, Initial residual = 1.9780274e-07, Final residual = 7.0156151e-09, No Iterations 3
GAMG:  Solving for p, Initial residual = 1.0424014e-05, Final residual = 7.0305332e-08, No Iterations 3
time step continuity errors : sum local = 2.6302004e-08, global = 4.8985542e-10, cumulative = -0.0005998121
ExecutionTime = 563.94717 s  ClockTime = 572 s

Time = 3460s

smoothSolver:  Solving for Ux, Initial residual = 4.9907171e-07, Final residual = 1.8125544e-08, No Iterations 3
smoothSolver:  Solving for Uy, Initial residual = 3.3204812e-06, Final residual = 1.2082211e-07, No Iterations 3
smoothSolver:  Solving for Uz, Initial residual = 1.9759474e-07, Final residual = 7.0124478e-09, No Iterations 3
GAMG:  Solving for p, Initial residual = 1.0410713e-05, Final residual = 7.0370982e-08, No Iterations 3
time step continuity errors : sum local = 2.6326565e-08, global = 4.9043738e-10, cumulative = -0.00059981161
ExecutionTime = 564.11652 s  ClockTime = 572 s

Time = 3461s

smoothSolver:  Solving for Ux, Initial residual = 4.9845002e-07, Final residual = 1.8119546e-08, No Iterations 3
smoothSolver:  Solving for Uy, Initial residual = 3.314143e-06, Final residual = 1.2060331e-07, No Iterations 3
smoothSolver:  Solving for Uz, Initial residual = 1.9736105e-07, Final residual = 7.0073276e-09, No Iterations 3
GAMG:  Solving for p, Initial residual = 1.0398022e-05, Final residual = 7.0423054e-08, No Iterations 3
time step continuity errors : sum local = 2.6346046e-08, global = 4.9016208e-10, cumulative = -0.00059981112
ExecutionTime = 564.28044 s  ClockTime = 572 s

Time = 3462s

smoothSolver:  Solving for Ux, Initial residual = 4.9784994e-07, Final residual = 1.8114638e-08, No Iterations 3
smoothSolver:  Solving for Uy, Initial residual = 3.3076508e-06, Final residual = 1.2038014e-07, No Iterations 3
smoothSolver:  Solving for Uz, Initial residual = 1.9709794e-07, Final residual = 7.0007562e-09, No Iterations 3
GAMG:  Solving for p, Initial residual = 1.0384791e-05, Final residual = 7.0466255e-08, No Iterations 3
time step continuity errors : sum local = 2.6362208e-08, global = 4.8753109e-10, cumulative = -0.00059981064
ExecutionTime = 564.44066 s  ClockTime = 573 s

Time = 3463s

smoothSolver:  Solving for Ux, Initial residual = 4.9724094e-07, Final residual = 1.8107396e-08, No Iterations 3
smoothSolver:  Solving for Uy, Initial residual = 3.301433e-06, Final residual = 1.2015484e-07, No Iterations 3
smoothSolver:  Solving for Uz, Initial residual = 1.9681968e-07, Final residual = 6.9921398e-09, No Iterations 3
GAMG:  Solving for p, Initial residual = 1.0370203e-05, Final residual = 7.0491805e-08, No Iterations 3
time step continuity errors : sum local = 2.6371766e-08, global = 4.8235847e-10, cumulative = -0.00059981015
ExecutionTime = 564.60132 s  ClockTime = 573 s

Time = 3464s

smoothSolver:  Solving for Ux, Initial residual = 4.9661312e-07, Final residual = 1.8096402e-08, No Iterations 3
smoothSolver:  Solving for Uy, Initial residual = 3.2951425e-06, Final residual = 1.199337e-07, No Iterations 3
smoothSolver:  Solving for Uz, Initial residual = 1.9652694e-07, Final residual = 6.982686e-09, No Iterations 3
GAMG:  Solving for p, Initial residual = 1.0352978e-05, Final residual = 7.0501189e-08, No Iterations 3
time step continuity errors : sum local = 2.6375277e-08, global = 4.7238493e-10, cumulative = -0.00059980968
ExecutionTime = 564.76163 s  ClockTime = 573 s

Time = 3465s

smoothSolver:  Solving for Ux, Initial residual = 4.9600157e-07, Final residual = 1.8082404e-08, No Iterations 3
smoothSolver:  Solving for Uy, Initial residual = 3.288443e-06, Final residual = 1.1973516e-07, No Iterations 3
smoothSolver:  Solving for Uz, Initial residual = 1.962219e-07, Final residual = 6.9727759e-09, No Iterations 3
GAMG:  Solving for p, Initial residual = 1.0333801e-05, Final residual = 7.0497069e-08, No Iterations 3
time step continuity errors : sum local = 2.6373735e-08, global = 4.575979e-10, cumulative = -0.00059980922
ExecutionTime = 564.9216 s  ClockTime = 573 s

Time = 3466s

smoothSolver:  Solving for Ux, Initial residual = 4.9539765e-07, Final residual = 1.8061642e-08, No Iterations 3
smoothSolver:  Solving for Uy, Initial residual = 3.2813129e-06, Final residual = 1.1954254e-07, No Iterations 3
smoothSolver:  Solving for Uz, Initial residual = 1.959163e-07, Final residual = 6.9624316e-09, No Iterations 3
GAMG:  Solving for p, Initial residual = 1.0314714e-05, Final residual = 7.0474471e-08, No Iterations 3
time step continuity errors : sum local = 2.6365281e-08, global = 4.3968927e-10, cumulative = -0.00059980878
ExecutionTime = 565.08337 s  ClockTime = 573 s

Time = 3467s

smoothSolver:  Solving for Ux, Initial residual = 4.9471701e-07, Final residual = 1.8033183e-08, No Iterations 3
smoothSolver:  Solving for Uy, Initial residual = 3.2744552e-06, Final residual = 1.1934265e-07, No Iterations 3
smoothSolver:  Solving for Uz, Initial residual = 1.9560766e-07, Final residual = 6.9504267e-09, No Iterations 3
GAMG:  Solving for p, Initial residual = 1.0293708e-05, Final residual = 7.0397447e-08, No Iterations 3
time step continuity errors : sum local = 2.6336465e-08, global = 4.2613873e-10, cumulative = -0.00059980836
ExecutionTime = 565.24341 s  ClockTime = 573 s

Time = 3468s

smoothSolver:  Solving for Ux, Initial residual = 4.940322e-07, Final residual = 1.7998148e-08, No Iterations 3
smoothSolver:  Solving for Uy, Initial residual = 3.2678098e-06, Final residual = 1.1913919e-07, No Iterations 3
smoothSolver:  Solving for Uz, Initial residual = 1.9528017e-07, Final residual = 6.936599e-09, No Iterations 3
GAMG:  Solving for p, Initial residual = 1.0270233e-05, Final residual = 7.0313203e-08, No Iterations 3
time step continuity errors : sum local = 2.6304948e-08, global = 4.0658333e-10, cumulative = -0.00059980795
ExecutionTime = 565.40487 s  ClockTime = 574 s

Time = 3469s

smoothSolver:  Solving for Ux, Initial residual = 4.9331005e-07, Final residual = 1.7957877e-08, No Iterations 3
smoothSolver:  Solving for Uy, Initial residual = 3.2614892e-06, Final residual = 1.1893175e-07, No Iterations 3
smoothSolver:  Solving for Uz, Initial residual = 1.9492692e-07, Final residual = 6.9208983e-09, No Iterations 3
GAMG:  Solving for p, Initial residual = 1.0244727e-05, Final residual = 7.0202228e-08, No Iterations 3
time step continuity errors : sum local = 2.6263431e-08, global = 3.8770646e-10, cumulative = -0.00059980756
ExecutionTime = 565.56439 s  ClockTime = 574 s

Time = 3470s

smoothSolver:  Solving for Ux, Initial residual = 4.9256574e-07, Final residual = 1.7916176e-08, No Iterations 3
smoothSolver:  Solving for Uy, Initial residual = 3.2554855e-06, Final residual = 1.1870074e-07, No Iterations 3
smoothSolver:  Solving for Uz, Initial residual = 1.94541e-07, Final residual = 6.9049989e-09, No Iterations 3
GAMG:  Solving for p, Initial residual = 1.0219692e-05, Final residual = 7.006154e-08, No Iterations 3
time step continuity errors : sum local = 2.6210798e-08, global = 3.6896478e-10, cumulative = -0.00059980719
ExecutionTime = 565.72595 s  ClockTime = 574 s

Time = 3471s

smoothSolver:  Solving for Ux, Initial residual = 4.917843e-07, Final residual = 1.787199e-08, No Iterations 3
smoothSolver:  Solving for Uy, Initial residual = 3.2491763e-06, Final residual = 1.1847124e-07, No Iterations 3
smoothSolver:  Solving for Uz, Initial residual = 1.9413895e-07, Final residual = 6.888609e-09, No Iterations 3
GAMG:  Solving for p, Initial residual = 1.0193796e-05, Final residual = 6.9918942e-08, No Iterations 3
time step continuity errors : sum local = 2.615745e-08, global = 3.4285261e-10, cumulative = -0.00059980685
ExecutionTime = 565.88677 s  ClockTime = 574 s

Time = 3472s

smoothSolver:  Solving for Ux, Initial residual = 4.9090185e-07, Final residual = 1.7825603e-08, No Iterations 3
smoothSolver:  Solving for Uy, Initial residual = 3.2428729e-06, Final residual = 1.1821976e-07, No Iterations 3
smoothSolver:  Solving for Uz, Initial residual = 1.9372854e-07, Final residual = 6.8706939e-09, No Iterations 3
GAMG:  Solving for p, Initial residual = 1.0167286e-05, Final residual = 6.9747813e-08, No Iterations 3
time step continuity errors : sum local = 2.6093428e-08, global = 3.1793613e-10, cumulative = -0.00059980653
ExecutionTime = 566.04796 s  ClockTime = 574 s

Time = 3473s

smoothSolver:  Solving for Ux, Initial residual = 4.8993465e-07, Final residual = 1.7779119e-08, No Iterations 3
smoothSolver:  Solving for Uy, Initial residual = 3.2367472e-06, Final residual = 1.1796647e-07, No Iterations 3
smoothSolver:  Solving for Uz, Initial residual = 1.9329783e-07, Final residual = 6.8521619e-09, No Iterations 3
GAMG:  Solving for p, Initial residual = 1.0138978e-05, Final residual = 6.9573145e-08, No Iterations 3
time step continuity errors : sum local = 2.6028082e-08, global = 2.8881385e-10, cumulative = -0.00059980624
ExecutionTime = 566.21117 s  ClockTime = 574 s

Time = 3474s

smoothSolver:  Solving for Ux, Initial residual = 4.8897961e-07, Final residual = 1.7734916e-08, No Iterations 3
smoothSolver:  Solving for Uy, Initial residual = 3.2305296e-06, Final residual = 1.1770156e-07, No Iterations 3
smoothSolver:  Solving for Uz, Initial residual = 1.9285775e-07, Final residual = 6.8323349e-09, No Iterations 3
GAMG:  Solving for p, Initial residual = 1.0110026e-05, Final residual = 6.9375415e-08, No Iterations 3
time step continuity errors : sum local = 2.5954109e-08, global = 2.6180161e-10, cumulative = -0.00059980598
ExecutionTime = 566.37554 s  ClockTime = 574 s

Time = 3475s

smoothSolver:  Solving for Ux, Initial residual = 4.8797856e-07, Final residual = 1.7687956e-08, No Iterations 3
smoothSolver:  Solving for Uy, Initial residual = 3.2245508e-06, Final residual = 1.1743698e-07, No Iterations 3
smoothSolver:  Solving for Uz, Initial residual = 1.9241346e-07, Final residual = 6.8118021e-09, No Iterations 3
GAMG:  Solving for p, Initial residual = 1.007907e-05, Final residual = 6.9166027e-08, No Iterations 3
time step continuity errors : sum local = 2.5875774e-08, global = 2.27985e-10, cumulative = -0.00059980575
ExecutionTime = 566.53655 s  ClockTime = 575 s

Time = 3476s

smoothSolver:  Solving for Ux, Initial residual = 4.86925e-07, Final residual = 1.7639549e-08, No Iterations 3
smoothSolver:  Solving for Uy, Initial residual = 3.2184943e-06, Final residual = 1.1717938e-07, No Iterations 3
smoothSolver:  Solving for Uz, Initial residual = 1.9194263e-07, Final residual = 6.7902144e-09, No Iterations 3
GAMG:  Solving for p, Initial residual = 1.0048952e-05, Final residual = 6.8951962e-08, No Iterations 3
time step continuity errors : sum local = 2.5795689e-08, global = 1.9188444e-10, cumulative = -0.00059980556
ExecutionTime = 566.6977 s  ClockTime = 575 s

Time = 3477s

smoothSolver:  Solving for Ux, Initial residual = 4.8579503e-07, Final residual = 1.7588034e-08, No Iterations 3
smoothSolver:  Solving for Uy, Initial residual = 3.2123465e-06, Final residual = 1.1692358e-07, No Iterations 3
smoothSolver:  Solving for Uz, Initial residual = 1.9145523e-07, Final residual = 6.7674447e-09, No Iterations 3
GAMG:  Solving for p, Initial residual = 1.0021418e-05, Final residual = 6.8729385e-08, No Iterations 3
time step continuity errors : sum local = 2.571242e-08, global = 1.5358056e-10, cumulative = -0.00059980541
ExecutionTime = 566.85803 s  ClockTime = 575 s

Time = 3478s

smoothSolver:  Solving for Ux, Initial residual = 4.8464808e-07, Final residual = 1.7535431e-08, No Iterations 3
smoothSolver:  Solving for Uy, Initial residual = 3.206288e-06, Final residual = 1.1667068e-07, No Iterations 3
smoothSolver:  Solving for Uz, Initial residual = 1.9096289e-07, Final residual = 6.7432231e-09, No Iterations 3
GAMG:  Solving for p, Initial residual = 9.9935298e-06, Final residual = 6.8604371e-08, No Iterations 3
time step continuity errors : sum local = 2.566565e-08, global = 1.1229898e-10, cumulative = -0.0005998053
ExecutionTime = 567.01813 s  ClockTime = 575 s


SIMPLE solution converged in 3478 iterations

End

Finalising parallel run
