/*---------------------------------------------------------------------------*\
  =========                 |
  \\      /  F ield         | OpenFOAM: The Open Source CFD Toolbox
   \\    /   O peration     | Website:  https://openfoam.org
    \\  /    A nd           | Version:  11
     \\/     M anipulation  |
\*---------------------------------------------------------------------------*/
Build  : 11-e1fc8c682ae6
Exec   : foamRun -solver incompressibleFluid -parallel
Date   : Feb 08 2026
Time   : 18:36:41
Host   : "ip-172-31-18-192"
PID    : 129386
I/O    : uncollated
Case   : /home/ubuntu/cases/bifurcation_angle45_750_ascii/Re100
nProcs : 16
Slaves : 
15
(
"ip-172-31-18-192.129387"
"ip-172-31-18-192.129388"
"ip-172-31-18-192.129389"
"ip-172-31-18-192.129390"
"ip-172-31-18-192.129391"
"ip-172-31-18-192.129392"
"ip-172-31-18-192.129393"
"ip-172-31-18-192.129394"
"ip-172-31-18-192.129395"
"ip-172-31-18-192.129396"
"ip-172-31-18-192.129397"
"ip-172-31-18-192.129398"
"ip-172-31-18-192.129399"
"ip-172-31-18-192.129400"
"ip-172-31-18-192.129401"
)

Pstream initialised with:
    floatTransfer      : false
    nProcsSimpleSum    : 0
    commsType          : nonBlocking
    polling iterations : 0
sigFpe : Enabling floating point exception trapping (FOAM_SIGFPE).
fileModificationChecking : Monitoring run-time modified files using timeStampMaster (fileModificationSkew 10)
allowSystemOperations : Allowing user-supplied system call operations

// * * * * * * * * * * * * * * * * * * * * * * * * * * * * * * * * * * * * * //
Create time

Create mesh for time = 0

Selecting solver incompressibleFluid
Selecting viscosity model Newtonian
Selecting turbulence model type laminar
Selecting laminar stress model Stokes
No MRF models present


SIMPLE: Convergence criteria found
        p: tolerance 1e-05
        U: tolerance 1e-05


SIMPLE: Operating solver in steady-state mode with 1 outer corrector
SIMPLE: Operating solver in SIMPLE mode



Starting time loop

wallShearStress wallShearStress:
    processing wall patches: 
        wall-fluid_domain

Time = 1s

smoothSolver:  Solving for Ux, Initial residual = 1, Final residual = 0.055299122, No Iterations 1
smoothSolver:  Solving for Uy, Initial residual = 1, Final residual = 0.052029668, No Iterations 1
smoothSolver:  Solving for Uz, Initial residual = 1, Final residual = 0.036111411, No Iterations 1
GAMG:  Solving for p, Initial residual = 1, Final residual = 0.0086355376, No Iterations 10
time step continuity errors : sum local = 7.0268346e-05, global = -1.0487231e-06, cumulative = -1.0487231e-06
ExecutionTime = 0.661611 s  ClockTime = 1 s

Time = 2s

smoothSolver:  Solving for Ux, Initial residual = 0.25388843, Final residual = 0.01966714, No Iterations 2
smoothSolver:  Solving for Uy, Initial residual = 0.2627025, Final residual = 0.01077962, No Iterations 2
smoothSolver:  Solving for Uz, Initial residual = 0.35541798, Final residual = 0.011546326, No Iterations 3
GAMG:  Solving for p, Initial residual = 0.22454583, Final residual = 0.0012073016, No Iterations 6
time step continuity errors : sum local = 0.0016089014, global = -3.3652027e-05, cumulative = -3.470075e-05
ExecutionTime = 0.870957 s  ClockTime = 1 s

Time = 3s

smoothSolver:  Solving for Ux, Initial residual = 0.22705107, Final residual = 0.0071050009, No Iterations 3
smoothSolver:  Solving for Uy, Initial residual = 0.1184256, Final residual = 0.0066087496, No Iterations 2
smoothSolver:  Solving for Uz, Initial residual = 0.55651954, Final residual = 0.019323683, No Iterations 3
GAMG:  Solving for p, Initial residual = 0.13711666, Final residual = 0.0013615697, No Iterations 3
time step continuity errors : sum local = 0.005136669, global = 0.00013160574, cumulative = 9.6904985e-05
ExecutionTime = 1.034414 s  ClockTime = 1 s

Time = 4s

smoothSolver:  Solving for Ux, Initial residual = 0.13732755, Final residual = 0.0044845076, No Iterations 3
smoothSolver:  Solving for Uy, Initial residual = 0.06462578, Final residual = 0.0036499325, No Iterations 2
smoothSolver:  Solving for Uz, Initial residual = 0.36779838, Final residual = 0.0128026, No Iterations 3
GAMG:  Solving for p, Initial residual = 0.090499364, Final residual = 0.00036465624, No Iterations 6
time step continuity errors : sum local = 0.0012692873, global = 1.4408648e-05, cumulative = 0.00011131363
ExecutionTime = 1.248157 s  ClockTime = 2 s

Time = 5s

smoothSolver:  Solving for Ux, Initial residual = 0.067937525, Final residual = 0.0061062141, No Iterations 2
smoothSolver:  Solving for Uy, Initial residual = 0.21407523, Final residual = 0.013456047, No Iterations 2
smoothSolver:  Solving for Uz, Initial residual = 0.12115531, Final residual = 0.0042379803, No Iterations 3
GAMG:  Solving for p, Initial residual = 0.11895451, Final residual = 0.0008145592, No Iterations 6
time step continuity errors : sum local = 0.0012613106, global = 2.7884522e-05, cumulative = 0.00013919816
ExecutionTime = 1.438568 s  ClockTime = 2 s

Time = 6s

smoothSolver:  Solving for Ux, Initial residual = 0.092007641, Final residual = 0.0077359309, No Iterations 2
smoothSolver:  Solving for Uy, Initial residual = 0.39393869, Final residual = 0.024002371, No Iterations 2
smoothSolver:  Solving for Uz, Initial residual = 0.093574552, Final residual = 0.0031932074, No Iterations 3
GAMG:  Solving for p, Initial residual = 0.37653003, Final residual = 0.003050641, No Iterations 4
time step continuity errors : sum local = 0.003717533, global = 6.4147357e-05, cumulative = 0.00020334551
ExecutionTime = 1.609249 s  ClockTime = 2 s

Time = 7s

smoothSolver:  Solving for Ux, Initial residual = 0.12951592, Final residual = 0.012162413, No Iterations 2
smoothSolver:  Solving for Uy, Initial residual = 0.2247732, Final residual = 0.013026929, No Iterations 2
smoothSolver:  Solving for Uz, Initial residual = 0.2246455, Final residual = 0.0077643067, No Iterations 3
GAMG:  Solving for p, Initial residual = 0.2459405, Final residual = 0.0011955678, No Iterations 4
time step continuity errors : sum local = 0.0023275699, global = -6.8393061e-06, cumulative = 0.00019650621
ExecutionTime = 1.782229 s  ClockTime = 2 s

Time = 8s

smoothSolver:  Solving for Ux, Initial residual = 0.10329925, Final residual = 0.010280226, No Iterations 2
smoothSolver:  Solving for Uy, Initial residual = 0.12718928, Final residual = 0.0085091636, No Iterations 2
smoothSolver:  Solving for Uz, Initial residual = 0.21343497, Final residual = 0.0073810978, No Iterations 3
GAMG:  Solving for p, Initial residual = 0.19207745, Final residual = 0.0011055326, No Iterations 5
time step continuity errors : sum local = 0.0016691773, global = -1.2174411e-05, cumulative = 0.0001843318
ExecutionTime = 1.965008 s  ClockTime = 2 s

Time = 9s

smoothSolver:  Solving for Ux, Initial residual = 0.055410515, Final residual = 0.0046505928, No Iterations 2
smoothSolver:  Solving for Uy, Initial residual = 0.28598884, Final residual = 0.021128183, No Iterations 2
smoothSolver:  Solving for Uz, Initial residual = 0.060723196, Final residual = 0.001980716, No Iterations 3
GAMG:  Solving for p, Initial residual = 0.24254701, Final residual = 0.0011355348, No Iterations 6
time step continuity errors : sum local = 0.00056015908, global = -7.883836e-06, cumulative = 0.00017644796
ExecutionTime = 2.155972 s  ClockTime = 3 s

Time = 10s

smoothSolver:  Solving for Ux, Initial residual = 0.06997449, Final residual = 0.0062116447, No Iterations 2
smoothSolver:  Solving for Uy, Initial residual = 0.37696248, Final residual = 0.025191479, No Iterations 2
smoothSolver:  Solving for Uz, Initial residual = 0.084696752, Final residual = 0.0029479741, No Iterations 3
GAMG:  Solving for p, Initial residual = 0.27193292, Final residual = 0.0020259349, No Iterations 4
time step continuity errors : sum local = 0.0014439993, global = -1.6972836e-05, cumulative = 0.00015947512
ExecutionTime = 2.32651 s  ClockTime = 3 s

Time = 11s

smoothSolver:  Solving for Ux, Initial residual = 0.065779844, Final residual = 0.0062836894, No Iterations 2
smoothSolver:  Solving for Uy, Initial residual = 0.20407072, Final residual = 0.012417057, No Iterations 2
smoothSolver:  Solving for Uz, Initial residual = 0.11394226, Final residual = 0.0039707153, No Iterations 3
GAMG:  Solving for p, Initial residual = 0.20443333, Final residual = 0.0015097408, No Iterations 4
time step continuity errors : sum local = 0.0014256156, global = 8.7690796e-06, cumulative = 0.0001682442
ExecutionTime = 2.497136 s  ClockTime = 3 s

Time = 12s

smoothSolver:  Solving for Ux, Initial residual = 0.040647606, Final residual = 0.0012901605, No Iterations 3
smoothSolver:  Solving for Uy, Initial residual = 0.14934016, Final residual = 0.011791549, No Iterations 2
smoothSolver:  Solving for Uz, Initial residual = 0.071395392, Final residual = 0.0024970379, No Iterations 3
GAMG:  Solving for p, Initial residual = 0.15655585, Final residual = 0.0012155098, No Iterations 5
time step continuity errors : sum local = 0.00081072879, global = 3.932489e-06, cumulative = 0.00017217669
ExecutionTime = 2.679159 s  ClockTime = 3 s

Time = 13s

smoothSolver:  Solving for Ux, Initial residual = 0.023218462, Final residual = 0.0019156084, No Iterations 2
smoothSolver:  Solving for Uy, Initial residual = 0.32033286, Final residual = 0.025392, No Iterations 2
smoothSolver:  Solving for Uz, Initial residual = 0.014752921, Final residual = 0.0013566484, No Iterations 2
GAMG:  Solving for p, Initial residual = 0.32829501, Final residual = 0.0030971986, No Iterations 5
time step continuity errors : sum local = 0.00059728211, global = 2.1260183e-06, cumulative = 0.00017430271
ExecutionTime = 2.858565 s  ClockTime = 3 s

Time = 14s

smoothSolver:  Solving for Ux, Initial residual = 0.031978612, Final residual = 0.0028949334, No Iterations 2
smoothSolver:  Solving for Uy, Initial residual = 0.30115278, Final residual = 0.021644235, No Iterations 2
smoothSolver:  Solving for Uz, Initial residual = 0.040333677, Final residual = 0.0013756124, No Iterations 3
GAMG:  Solving for p, Initial residual = 0.27539791, Final residual = 0.0016007782, No Iterations 4
time step continuity errors : sum local = 0.00058336346, global = 6.5654909e-06, cumulative = 0.0001808682
ExecutionTime = 3.03024 s  ClockTime = 3 s

Time = 15s

smoothSolver:  Solving for Ux, Initial residual = 0.030274485, Final residual = 0.0028957641, No Iterations 2
smoothSolver:  Solving for Uy, Initial residual = 0.15827576, Final residual = 0.010445177, No Iterations 2
smoothSolver:  Solving for Uz, Initial residual = 0.050539593, Final residual = 0.0017316127, No Iterations 3
GAMG:  Solving for p, Initial residual = 0.21224098, Final residual = 0.0018827402, No Iterations 4
time step continuity errors : sum local = 0.00077604708, global = -6.5341737e-06, cumulative = 0.00017433403
ExecutionTime = 3.201585 s  ClockTime = 4 s

Time = 16s

smoothSolver:  Solving for Ux, Initial residual = 0.019545799, Final residual = 0.0019399779, No Iterations 2
smoothSolver:  Solving for Uy, Initial residual = 0.1493449, Final residual = 0.012658183, No Iterations 2
smoothSolver:  Solving for Uz, Initial residual = 0.028945264, Final residual = 0.00098340876, No Iterations 3
GAMG:  Solving for p, Initial residual = 0.17164459, Final residual = 0.0015038751, No Iterations 5
time step continuity errors : sum local = 0.00037551499, global = -1.6342874e-06, cumulative = 0.00017269974
ExecutionTime = 3.380536 s  ClockTime = 4 s

Time = 17s

smoothSolver:  Solving for Ux, Initial residual = 0.013307361, Final residual = 0.0011232214, No Iterations 2
smoothSolver:  Solving for Uy, Initial residual = 0.2565775, Final residual = 0.020757181, No Iterations 2
smoothSolver:  Solving for Uz, Initial residual = 0.0083454513, Final residual = 0.00079559026, No Iterations 2
GAMG:  Solving for p, Initial residual = 0.31187991, Final residual = 0.0022309832, No Iterations 5
time step continuity errors : sum local = 0.00024380346, global = -1.2118464e-06, cumulative = 0.00017148789
ExecutionTime = 3.558916 s  ClockTime = 4 s

Time = 18s

smoothSolver:  Solving for Ux, Initial residual = 0.016702101, Final residual = 0.0015781315, No Iterations 2
smoothSolver:  Solving for Uy, Initial residual = 0.20350846, Final residual = 0.014988165, No Iterations 2
smoothSolver:  Solving for Uz, Initial residual = 0.023011019, Final residual = 0.00081273497, No Iterations 3
GAMG:  Solving for p, Initial residual = 0.19994654, Final residual = 0.001056135, No Iterations 4
time step continuity errors : sum local = 0.00025197745, global = -2.6030178e-07, cumulative = 0.00017122759
ExecutionTime = 3.730546 s  ClockTime = 4 s

Time = 19s

smoothSolver:  Solving for Ux, Initial residual = 0.013612752, Final residual = 0.00042462314, No Iterations 3
smoothSolver:  Solving for Uy, Initial residual = 0.11069101, Final residual = 0.0080778836, No Iterations 2
smoothSolver:  Solving for Uz, Initial residual = 0.022670229, Final residual = 0.00080164774, No Iterations 3
GAMG:  Solving for p, Initial residual = 0.15559507, Final residual = 0.00069272244, No Iterations 5
time step continuity errors : sum local = 0.00016513999, global = 8.9191821e-07, cumulative = 0.00017211951
ExecutionTime = 3.912014 s  ClockTime = 4 s

Time = 20s

smoothSolver:  Solving for Ux, Initial residual = 0.0088538901, Final residual = 0.00027939586, No Iterations 3
smoothSolver:  Solving for Uy, Initial residual = 0.12460271, Final residual = 0.011052993, No Iterations 2
smoothSolver:  Solving for Uz, Initial residual = 0.010866071, Final residual = 0.00038117877, No Iterations 3
GAMG:  Solving for p, Initial residual = 0.11045303, Final residual = 0.00043349179, No Iterations 6
time step continuity errors : sum local = 6.6213257e-05, global = 9.5922728e-07, cumulative = 0.00017307874
ExecutionTime = 4.106847 s  ClockTime = 4 s

Time = 21s

smoothSolver:  Solving for Ux, Initial residual = 0.0070954536, Final residual = 0.00061471622, No Iterations 2
smoothSolver:  Solving for Uy, Initial residual = 0.16194087, Final residual = 0.013480653, No Iterations 2
smoothSolver:  Solving for Uz, Initial residual = 0.0052311386, Final residual = 0.00049140385, No Iterations 2
GAMG:  Solving for p, Initial residual = 0.28845813, Final residual = 0.0014911635, No Iterations 5
time step continuity errors : sum local = 9.6365933e-05, global = 5.5325501e-07, cumulative = 0.00017363199
ExecutionTime = 4.287363 s  ClockTime = 5 s

Time = 22s

smoothSolver:  Solving for Ux, Initial residual = 0.0074860003, Final residual = 0.00068571214, No Iterations 2
smoothSolver:  Solving for Uy, Initial residual = 0.11764916, Final residual = 0.0090271902, No Iterations 2
smoothSolver:  Solving for Uz, Initial residual = 0.010347955, Final residual = 0.00034302164, No Iterations 3
GAMG:  Solving for p, Initial residual = 0.20530012, Final residual = 0.0014239374, No Iterations 4
time step continuity errors : sum local = 0.00015820235, global = -1.1781634e-06, cumulative = 0.00017245383
ExecutionTime = 4.457994 s  ClockTime = 5 s

Time = 23s

smoothSolver:  Solving for Ux, Initial residual = 0.0057064934, Final residual = 0.00054756597, No Iterations 2
smoothSolver:  Solving for Uy, Initial residual = 0.067356522, Final residual = 0.005384188, No Iterations 2
smoothSolver:  Solving for Uz, Initial residual = 0.0089610971, Final residual = 0.00029609936, No Iterations 3
GAMG:  Solving for p, Initial residual = 0.16028265, Final residual = 0.00082763147, No Iterations 5
time step continuity errors : sum local = 8.299533e-05, global = -3.0639579e-07, cumulative = 0.00017214743
ExecutionTime = 4.636923 s  ClockTime = 5 s

Time = 24s

smoothSolver:  Solving for Ux, Initial residual = 0.0041767053, Final residual = 0.00039340115, No Iterations 2
smoothSolver:  Solving for Uy, Initial residual = 0.081992038, Final residual = 0.0073552981, No Iterations 2
smoothSolver:  Solving for Uz, Initial residual = 0.0038441981, Final residual = 0.00037879191, No Iterations 2
GAMG:  Solving for p, Initial residual = 0.13757466, Final residual = 0.001306083, No Iterations 5
time step continuity errors : sum local = 7.2942104e-05, global = -2.3612775e-07, cumulative = 0.00017191131
ExecutionTime = 4.81522 s  ClockTime = 5 s

Time = 25s

smoothSolver:  Solving for Ux, Initial residual = 0.0045170728, Final residual = 0.00043472909, No Iterations 2
smoothSolver:  Solving for Uy, Initial residual = 0.088609567, Final residual = 0.007528305, No Iterations 2
smoothSolver:  Solving for Uz, Initial residual = 0.0049468833, Final residual = 0.00016836448, No Iterations 3
GAMG:  Solving for p, Initial residual = 0.10517453, Final residual = 0.0010229341, No Iterations 4
time step continuity errors : sum local = 9.3405856e-05, global = -8.2535486e-07, cumulative = 0.00017108595
ExecutionTime = 4.985774 s  ClockTime = 5 s

Time = 26s

smoothSolver:  Solving for Ux, Initial residual = 0.0042626539, Final residual = 0.00042598094, No Iterations 2
smoothSolver:  Solving for Uy, Initial residual = 0.061181547, Final residual = 0.0050479135, No Iterations 2
smoothSolver:  Solving for Uz, Initial residual = 0.006119812, Final residual = 0.00021639521, No Iterations 3
GAMG:  Solving for p, Initial residual = 0.094284768, Final residual = 0.00078214521, No Iterations 4
time step continuity errors : sum local = 8.4460616e-05, global = 3.7993331e-07, cumulative = 0.00017146588
ExecutionTime = 5.154463 s  ClockTime = 6 s

Time = 27s

smoothSolver:  Solving for Ux, Initial residual = 0.0035107346, Final residual = 0.00011515316, No Iterations 3
smoothSolver:  Solving for Uy, Initial residual = 0.042467998, Final residual = 0.0039078442, No Iterations 2
smoothSolver:  Solving for Uz, Initial residual = 0.0051712845, Final residual = 0.00018046294, No Iterations 3
GAMG:  Solving for p, Initial residual = 0.065131136, Final residual = 0.00040308691, No Iterations 5
time step continuity errors : sum local = 4.0332293e-05, global = 1.4130304e-07, cumulative = 0.00017160719
ExecutionTime = 5.336572 s  ClockTime = 6 s

Time = 28s

smoothSolver:  Solving for Ux, Initial residual = 0.0031519333, Final residual = 9.8916504e-05, No Iterations 3
smoothSolver:  Solving for Uy, Initial residual = 0.049970078, Final residual = 0.0046748049, No Iterations 2
smoothSolver:  Solving for Uz, Initial residual = 0.003655348, Final residual = 0.00012032002, No Iterations 3
GAMG:  Solving for p, Initial residual = 0.050140816, Final residual = 0.00040500649, No Iterations 5
time step continuity errors : sum local = 3.1952875e-05, global = 1.3401694e-07, cumulative = 0.0001717412
ExecutionTime = 5.517664 s  ClockTime = 6 s

Time = 29s

smoothSolver:  Solving for Ux, Initial residual = 0.002795075, Final residual = 0.00027061081, No Iterations 2
smoothSolver:  Solving for Uy, Initial residual = 0.048371098, Final residual = 0.0043302096, No Iterations 2
smoothSolver:  Solving for Uz, Initial residual = 0.0029522407, Final residual = 9.1775649e-05, No Iterations 3
GAMG:  Solving for p, Initial residual = 0.086716004, Final residual = 0.00068033727, No Iterations 4
time step continuity errors : sum local = 4.1845988e-05, global = 3.3918926e-07, cumulative = 0.00017208039
ExecutionTime = 5.687941 s  ClockTime = 6 s

Time = 30s

smoothSolver:  Solving for Ux, Initial residual = 0.0023853894, Final residual = 0.0002323729, No Iterations 2
smoothSolver:  Solving for Uy, Initial residual = 0.034583541, Final residual = 0.0031231991, No Iterations 2
smoothSolver:  Solving for Uz, Initial residual = 0.0028484295, Final residual = 8.8211509e-05, No Iterations 3
GAMG:  Solving for p, Initial residual = 0.090512218, Final residual = 0.00072250661, No Iterations 4
time step continuity errors : sum local = 4.067161e-05, global = -2.6089248e-07, cumulative = 0.0001718195
ExecutionTime = 5.857664 s  ClockTime = 6 s

Time = 31s

smoothSolver:  Solving for Ux, Initial residual = 0.0022247844, Final residual = 6.9342278e-05, No Iterations 3
smoothSolver:  Solving for Uy, Initial residual = 0.028964699, Final residual = 0.0028189143, No Iterations 2
smoothSolver:  Solving for Uz, Initial residual = 0.0027552717, Final residual = 8.7364204e-05, No Iterations 3
GAMG:  Solving for p, Initial residual = 0.053997144, Final residual = 0.00029734113, No Iterations 5
time step continuity errors : sum local = 1.8175572e-05, global = -2.9877182e-08, cumulative = 0.00017178962
ExecutionTime = 6.041318 s  ClockTime = 6 s

Time = 32s

smoothSolver:  Solving for Ux, Initial residual = 0.0023227559, Final residual = 7.3904561e-05, No Iterations 3
smoothSolver:  Solving for Uy, Initial residual = 0.031932146, Final residual = 0.0030820001, No Iterations 2
smoothSolver:  Solving for Uz, Initial residual = 0.0029647762, Final residual = 9.7484988e-05, No Iterations 3
GAMG:  Solving for p, Initial residual = 0.034558153, Final residual = 0.00017997723, No Iterations 5
time step continuity errors : sum local = 1.2730433e-05, global = -2.9875474e-08, cumulative = 0.00017175975
ExecutionTime = 6.222651 s  ClockTime = 7 s

Time = 33s

smoothSolver:  Solving for Ux, Initial residual = 0.0023093277, Final residual = 7.4780465e-05, No Iterations 3
smoothSolver:  Solving for Uy, Initial residual = 0.029631485, Final residual = 0.0028355166, No Iterations 2
smoothSolver:  Solving for Uz, Initial residual = 0.0032008465, Final residual = 0.00010789902, No Iterations 3
GAMG:  Solving for p, Initial residual = 0.035926836, Final residual = 0.00021845127, No Iterations 4
time step continuity errors : sum local = 1.7018474e-05, global = -1.6226545e-07, cumulative = 0.00017159748
ExecutionTime = 6.396371 s  ClockTime = 7 s

Time = 34s

smoothSolver:  Solving for Ux, Initial residual = 0.0021539034, Final residual = 7.1285849e-05, No Iterations 3
smoothSolver:  Solving for Uy, Initial residual = 0.024214917, Final residual = 0.0024065033, No Iterations 2
smoothSolver:  Solving for Uz, Initial residual = 0.0031710747, Final residual = 0.00010733152, No Iterations 3
GAMG:  Solving for p, Initial residual = 0.031189112, Final residual = 0.00026786841, No Iterations 4
time step continuity errors : sum local = 2.1203094e-05, global = 1.6089853e-07, cumulative = 0.00017175838
ExecutionTime = 6.567643 s  ClockTime = 7 s

Time = 35s

smoothSolver:  Solving for Ux, Initial residual = 0.0020362541, Final residual = 6.7592857e-05, No Iterations 3
smoothSolver:  Solving for Uy, Initial residual = 0.022626217, Final residual = 0.00072169755, No Iterations 3
smoothSolver:  Solving for Uz, Initial residual = 0.002935448, Final residual = 9.8430223e-05, No Iterations 3
GAMG:  Solving for p, Initial residual = 0.02402777, Final residual = 0.00011744034, No Iterations 5
time step continuity errors : sum local = 8.9255162e-06, global = 4.5928801e-08, cumulative = 0.00017180431
ExecutionTime = 6.752274 s  ClockTime = 7 s

Time = 36s

smoothSolver:  Solving for Ux, Initial residual = 0.0019598294, Final residual = 6.4059167e-05, No Iterations 3
smoothSolver:  Solving for Uy, Initial residual = 0.022652987, Final residual = 0.0007112504, No Iterations 3
smoothSolver:  Solving for Uz, Initial residual = 0.0026809791, Final residual = 8.864421e-05, No Iterations 3
GAMG:  Solving for p, Initial residual = 0.025343545, Final residual = 0.00020738557, No Iterations 4
time step continuity errors : sum local = 1.4830377e-05, global = 1.2055136e-07, cumulative = 0.00017192486
ExecutionTime = 6.926485 s  ClockTime = 7 s

Time = 37s

smoothSolver:  Solving for Ux, Initial residual = 0.0018683706, Final residual = 6.0767691e-05, No Iterations 3
smoothSolver:  Solving for Uy, Initial residual = 0.020829713, Final residual = 0.00065511941, No Iterations 3
smoothSolver:  Solving for Uz, Initial residual = 0.002535919, Final residual = 8.3264517e-05, No Iterations 3
GAMG:  Solving for p, Initial residual = 0.028242248, Final residual = 0.00013861048, No Iterations 4
time step continuity errors : sum local = 9.5403155e-06, global = 9.6755745e-08, cumulative = 0.00017202162
ExecutionTime = 7.099771 s  ClockTime = 8 s

Time = 38s

smoothSolver:  Solving for Ux, Initial residual = 0.0017974325, Final residual = 5.8938802e-05, No Iterations 3
smoothSolver:  Solving for Uy, Initial residual = 0.018948625, Final residual = 0.00061057318, No Iterations 3
smoothSolver:  Solving for Uz, Initial residual = 0.0024778979, Final residual = 8.1589872e-05, No Iterations 3
GAMG:  Solving for p, Initial residual = 0.025318365, Final residual = 0.00014795378, No Iterations 4
time step continuity errors : sum local = 1.0180431e-05, global = -9.2489983e-08, cumulative = 0.00017192913
ExecutionTime = 7.27407 s  ClockTime = 8 s

Time = 39s

smoothSolver:  Solving for Ux, Initial residual = 0.0017726047, Final residual = 5.8602838e-05, No Iterations 3
smoothSolver:  Solving for Uy, Initial residual = 0.018604128, Final residual = 0.00060430123, No Iterations 3
smoothSolver:  Solving for Uz, Initial residual = 0.0024672638, Final residual = 8.192578e-05, No Iterations 3
GAMG:  Solving for p, Initial residual = 0.020926081, Final residual = 0.00013091154, No Iterations 4
time step continuity errors : sum local = 9.2296857e-06, global = -1.1734566e-07, cumulative = 0.00017181178
ExecutionTime = 7.447621 s  ClockTime = 8 s

Time = 40s

smoothSolver:  Solving for Ux, Initial residual = 0.0017517934, Final residual = 5.826663e-05, No Iterations 3
smoothSolver:  Solving for Uy, Initial residual = 0.018386515, Final residual = 0.00059597697, No Iterations 3
smoothSolver:  Solving for Uz, Initial residual = 0.0024715405, Final residual = 8.2820106e-05, No Iterations 3
GAMG:  Solving for p, Initial residual = 0.019309655, Final residual = 9.1324767e-05, No Iterations 4
time step continuity errors : sum local = 6.6213176e-06, global = -6.1839472e-08, cumulative = 0.00017174994
ExecutionTime = 7.620491 s  ClockTime = 8 s

Time = 41s

smoothSolver:  Solving for Ux, Initial residual = 0.0017108999, Final residual = 5.7237315e-05, No Iterations 3
smoothSolver:  Solving for Uy, Initial residual = 0.017521246, Final residual = 0.0005720231, No Iterations 3
smoothSolver:  Solving for Uz, Initial residual = 0.0024515856, Final residual = 8.2584113e-05, No Iterations 3
GAMG:  Solving for p, Initial residual = 0.018696805, Final residual = 8.6516912e-05, No Iterations 4
time step continuity errors : sum local = 6.3675982e-06, global = 5.749543e-08, cumulative = 0.00017180744
ExecutionTime = 7.794641 s  ClockTime = 8 s

Time = 42s

smoothSolver:  Solving for Ux, Initial residual = 0.0016659094, Final residual = 5.5914644e-05, No Iterations 3
smoothSolver:  Solving for Uy, Initial residual = 0.016664544, Final residual = 0.00054929141, No Iterations 3
smoothSolver:  Solving for Uz, Initial residual = 0.0023961293, Final residual = 8.0773008e-05, No Iterations 3
GAMG:  Solving for p, Initial residual = 0.017650782, Final residual = 9.447401e-05, No Iterations 4
time step continuity errors : sum local = 6.949575e-06, global = 3.4635011e-08, cumulative = 0.00017184207
ExecutionTime = 7.968741 s  ClockTime = 8 s

Time = 43s

smoothSolver:  Solving for Ux, Initial residual = 0.0016280977, Final residual = 5.4604929e-05, No Iterations 3
smoothSolver:  Solving for Uy, Initial residual = 0.016139825, Final residual = 0.00053287278, No Iterations 3
smoothSolver:  Solving for Uz, Initial residual = 0.0023203676, Final residual = 7.805015e-05, No Iterations 3
GAMG:  Solving for p, Initial residual = 0.017164647, Final residual = 8.9355342e-05, No Iterations 4
time step continuity errors : sum local = 6.5016604e-06, global = 3.3085437e-08, cumulative = 0.00017187516
ExecutionTime = 8.143939 s  ClockTime = 9 s

Time = 44s

smoothSolver:  Solving for Ux, Initial residual = 0.0015937568, Final residual = 5.3364365e-05, No Iterations 3
smoothSolver:  Solving for Uy, Initial residual = 0.015660524, Final residual = 0.00051657757, No Iterations 3
smoothSolver:  Solving for Uz, Initial residual = 0.0022503584, Final residual = 7.5548702e-05, No Iterations 3
GAMG:  Solving for p, Initial residual = 0.017384257, Final residual = 7.4489263e-05, No Iterations 4
time step continuity errors : sum local = 5.3593513e-06, global = 3.2107355e-08, cumulative = 0.00017190727
ExecutionTime = 8.317536 s  ClockTime = 9 s

Time = 45s

smoothSolver:  Solving for Ux, Initial residual = 0.001561649, Final residual = 5.230585e-05, No Iterations 3
smoothSolver:  Solving for Uy, Initial residual = 0.015150483, Final residual = 0.00050079957, No Iterations 3
smoothSolver:  Solving for Uz, Initial residual = 0.002197418, Final residual = 7.3782253e-05, No Iterations 3
GAMG:  Solving for p, Initial residual = 0.01720591, Final residual = 9.5650446e-05, No Iterations 3
time step continuity errors : sum local = 6.8505454e-06, global = 1.0779544e-07, cumulative = 0.00017201506
ExecutionTime = 8.480477 s  ClockTime = 9 s

Time = 46s

smoothSolver:  Solving for Ux, Initial residual = 0.0015345532, Final residual = 5.1503531e-05, No Iterations 3
smoothSolver:  Solving for Uy, Initial residual = 0.0147517, Final residual = 0.00048895986, No Iterations 3
smoothSolver:  Solving for Uz, Initial residual = 0.0021592497, Final residual = 7.2662423e-05, No Iterations 3
GAMG:  Solving for p, Initial residual = 0.016446993, Final residual = 0.00013606984, No Iterations 3
time step continuity errors : sum local = 9.7748756e-06, global = -4.6873245e-08, cumulative = 0.00017196819
ExecutionTime = 8.644742 s  ClockTime = 9 s

Time = 47s

smoothSolver:  Solving for Ux, Initial residual = 0.0015105232, Final residual = 5.0804395e-05, No Iterations 3
smoothSolver:  Solving for Uy, Initial residual = 0.014445288, Final residual = 0.00047932287, No Iterations 3
smoothSolver:  Solving for Uz, Initial residual = 0.0021273091, Final residual = 7.1790054e-05, No Iterations 3
GAMG:  Solving for p, Initial residual = 0.015753435, Final residual = 0.00013119661, No Iterations 3
time step continuity errors : sum local = 9.4787322e-06, global = -3.5415382e-08, cumulative = 0.00017193277
ExecutionTime = 8.810461 s  ClockTime = 9 s

Time = 48s

smoothSolver:  Solving for Ux, Initial residual = 0.0014864332, Final residual = 5.0101723e-05, No Iterations 3
smoothSolver:  Solving for Uy, Initial residual = 0.014098623, Final residual = 0.00046844069, No Iterations 3
smoothSolver:  Solving for Uz, Initial residual = 0.0020971012, Final residual = 7.0965441e-05, No Iterations 3
GAMG:  Solving for p, Initial residual = 0.015255041, Final residual = 8.2164852e-05, No Iterations 3
time step continuity errors : sum local = 5.9711979e-06, global = 2.8115399e-08, cumulative = 0.00017196089
ExecutionTime = 8.975116 s  ClockTime = 9 s

Time = 49s

smoothSolver:  Solving for Ux, Initial residual = 0.0014620698, Final residual = 4.9367823e-05, No Iterations 3
smoothSolver:  Solving for Uy, Initial residual = 0.013705095, Final residual = 0.00045621778, No Iterations 3
smoothSolver:  Solving for Uz, Initial residual = 0.0020642773, Final residual = 6.9990209e-05, No Iterations 3
GAMG:  Solving for p, Initial residual = 0.014874403, Final residual = 0.00012820785, No Iterations 3
time step continuity errors : sum local = 9.3502045e-06, global = 1.3060342e-07, cumulative = 0.00017209149
ExecutionTime = 9.139485 s  ClockTime = 10 s

Time = 50s

smoothSolver:  Solving for Ux, Initial residual = 0.0014388496, Final residual = 4.8639087e-05, No Iterations 3
smoothSolver:  Solving for Uy, Initial residual = 0.01333188, Final residual = 0.00044451842, No Iterations 3
smoothSolver:  Solving for Uz, Initial residual = 0.0020292378, Final residual = 6.8885808e-05, No Iterations 3
GAMG:  Solving for p, Initial residual = 0.014555598, Final residual = 6.0326009e-05, No Iterations 4
time step continuity errors : sum local = 4.4053278e-06, global = 3.6179229e-08, cumulative = 0.00017212767
ExecutionTime = 9.311655 s  ClockTime = 10 s

Time = 51s

smoothSolver:  Solving for Ux, Initial residual = 0.0014169472, Final residual = 4.7909157e-05, No Iterations 3
smoothSolver:  Solving for Uy, Initial residual = 0.013001734, Final residual = 0.00043403875, No Iterations 3
smoothSolver:  Solving for Uz, Initial residual = 0.0019906765, Final residual = 6.7592477e-05, No Iterations 3
GAMG:  Solving for p, Initial residual = 0.014366462, Final residual = 0.00014041082, No Iterations 3
time step continuity errors : sum local = 1.0234852e-05, global = 1.1474846e-07, cumulative = 0.00017224242
ExecutionTime = 9.476843 s  ClockTime = 10 s

Time = 52s

smoothSolver:  Solving for Ux, Initial residual = 0.0013961086, Final residual = 4.7217174e-05, No Iterations 3
smoothSolver:  Solving for Uy, Initial residual = 0.012704915, Final residual = 0.00042457153, No Iterations 3
smoothSolver:  Solving for Uz, Initial residual = 0.001953944, Final residual = 6.6376054e-05, No Iterations 3
GAMG:  Solving for p, Initial residual = 0.014194417, Final residual = 0.00013304685, No Iterations 3
time step continuity errors : sum local = 9.6838078e-06, global = 9.4978729e-08, cumulative = 0.0001723374
ExecutionTime = 9.642083 s  ClockTime = 10 s

Time = 53s

smoothSolver:  Solving for Ux, Initial residual = 0.0013764691, Final residual = 4.6576292e-05, No Iterations 3
smoothSolver:  Solving for Uy, Initial residual = 0.012434101, Final residual = 0.00041607621, No Iterations 3
smoothSolver:  Solving for Uz, Initial residual = 0.0019201293, Final residual = 6.5279815e-05, No Iterations 3
GAMG:  Solving for p, Initial residual = 0.013978048, Final residual = 0.00011433781, No Iterations 3
time step continuity errors : sum local = 8.3194499e-06, global = 8.4213043e-08, cumulative = 0.00017242161
ExecutionTime = 9.807175 s  ClockTime = 10 s

Time = 54s

smoothSolver:  Solving for Ux, Initial residual = 0.0013580081, Final residual = 4.5988333e-05, No Iterations 3
smoothSolver:  Solving for Uy, Initial residual = 0.012183167, Final residual = 0.00040825305, No Iterations 3
smoothSolver:  Solving for Uz, Initial residual = 0.0018894607, Final residual = 6.4316061e-05, No Iterations 3
GAMG:  Solving for p, Initial residual = 0.013704891, Final residual = 8.5105513e-05, No Iterations 3
time step continuity errors : sum local = 6.1997145e-06, global = 1.0065041e-07, cumulative = 0.00017252226
ExecutionTime = 9.970679 s  ClockTime = 10 s

Time = 55s

smoothSolver:  Solving for Ux, Initial residual = 0.0013406331, Final residual = 4.5440879e-05, No Iterations 3
smoothSolver:  Solving for Uy, Initial residual = 0.011938241, Final residual = 0.0004005522, No Iterations 3
smoothSolver:  Solving for Uz, Initial residual = 0.0018609039, Final residual = 6.3433804e-05, No Iterations 3
GAMG:  Solving for p, Initial residual = 0.01342529, Final residual = 8.5769878e-05, No Iterations 3
time step continuity errors : sum local = 6.2606673e-06, global = 1.1427607e-07, cumulative = 0.00017263654
ExecutionTime = 10.135651 s  ClockTime = 11 s

Time = 56s

smoothSolver:  Solving for Ux, Initial residual = 0.0013241508, Final residual = 4.4918649e-05, No Iterations 3
smoothSolver:  Solving for Uy, Initial residual = 0.011693381, Final residual = 0.00039282094, No Iterations 3
smoothSolver:  Solving for Uz, Initial residual = 0.00183342, Final residual = 6.2582017e-05, No Iterations 3
GAMG:  Solving for p, Initial residual = 0.013174455, Final residual = 0.00010408582, No Iterations 3
time step continuity errors : sum local = 7.6130918e-06, global = 1.2468994e-07, cumulative = 0.00017276123
ExecutionTime = 10.29992 s  ClockTime = 11 s

Time = 57s

smoothSolver:  Solving for Ux, Initial residual = 0.0013084166, Final residual = 4.4413773e-05, No Iterations 3
smoothSolver:  Solving for Uy, Initial residual = 0.011453313, Final residual = 0.00038520157, No Iterations 3
smoothSolver:  Solving for Uz, Initial residual = 0.0018064615, Final residual = 6.1733295e-05, No Iterations 3
GAMG:  Solving for p, Initial residual = 0.01295433, Final residual = 0.00012012279, No Iterations 3
time step continuity errors : sum local = 8.800224e-06, global = 1.2337301e-07, cumulative = 0.0001728846
ExecutionTime = 10.464181 s  ClockTime = 11 s

Time = 58s

smoothSolver:  Solving for Ux, Initial residual = 0.0012933643, Final residual = 4.3921082e-05, No Iterations 3
smoothSolver:  Solving for Uy, Initial residual = 0.011225781, Final residual = 0.00037794919, No Iterations 3
smoothSolver:  Solving for Uz, Initial residual = 0.0017797523, Final residual = 6.0877776e-05, No Iterations 3
GAMG:  Solving for p, Initial residual = 0.012760561, Final residual = 0.00012493324, No Iterations 3
time step continuity errors : sum local = 9.1620239e-06, global = 1.1563992e-07, cumulative = 0.00017300024
ExecutionTime = 10.629521 s  ClockTime = 11 s

Time = 59s

smoothSolver:  Solving for Ux, Initial residual = 0.0012789702, Final residual = 4.3444304e-05, No Iterations 3
smoothSolver:  Solving for Uy, Initial residual = 0.011012665, Final residual = 0.0003711561, No Iterations 3
smoothSolver:  Solving for Uz, Initial residual = 0.0017533433, Final residual = 6.0023388e-05, No Iterations 3
GAMG:  Solving for p, Initial residual = 0.012581224, Final residual = 0.00012217043, No Iterations 3
time step continuity errors : sum local = 8.965095e-06, global = 1.0508457e-07, cumulative = 0.00017310532
ExecutionTime = 10.793663 s  ClockTime = 11 s

Time = 60s

smoothSolver:  Solving for Ux, Initial residual = 0.0012652423, Final residual = 4.2990129e-05, No Iterations 3
smoothSolver:  Solving for Uy, Initial residual = 0.010812862, Final residual = 0.0003647416, No Iterations 3
smoothSolver:  Solving for Uz, Initial residual = 0.0017275532, Final residual = 5.9187463e-05, No Iterations 3
GAMG:  Solving for p, Initial residual = 0.012404706, Final residual = 0.00011442422, No Iterations 3
time step continuity errors : sum local = 8.4016539e-06, global = 9.5085771e-08, cumulative = 0.00017320041
ExecutionTime = 10.959641 s  ClockTime = 11 s

Time = 61s

smoothSolver:  Solving for Ux, Initial residual = 0.0012522301, Final residual = 4.2561822e-05, No Iterations 3
smoothSolver:  Solving for Uy, Initial residual = 0.010623498, Final residual = 0.00035867687, No Iterations 3
smoothSolver:  Solving for Uz, Initial residual = 0.0017026646, Final residual = 5.8385112e-05, No Iterations 3
GAMG:  Solving for p, Initial residual = 0.012227575, Final residual = 0.00010423966, No Iterations 3
time step continuity errors : sum local = 7.6602033e-06, global = 8.9527112e-08, cumulative = 0.00017328994
ExecutionTime = 11.125722 s  ClockTime = 12 s

Time = 62s

smoothSolver:  Solving for Ux, Initial residual = 0.0012399793, Final residual = 4.2161067e-05, No Iterations 3
smoothSolver:  Solving for Uy, Initial residual = 0.010441606, Final residual = 0.00035281482, No Iterations 3
smoothSolver:  Solving for Uz, Initial residual = 0.0016787436, Final residual = 5.7619584e-05, No Iterations 3
GAMG:  Solving for p, Initial residual = 0.012047778, Final residual = 9.7438443e-05, No Iterations 3
time step continuity errors : sum local = 7.1684577e-06, global = 9.0023662e-08, cumulative = 0.00017337996
ExecutionTime = 11.290446 s  ClockTime = 12 s

Time = 63s

smoothSolver:  Solving for Ux, Initial residual = 0.0012285602, Final residual = 4.1787378e-05, No Iterations 3
smoothSolver:  Solving for Uy, Initial residual = 0.010265801, Final residual = 0.00034714726, No Iterations 3
smoothSolver:  Solving for Uz, Initial residual = 0.0016557025, Final residual = 5.688338e-05, No Iterations 3
GAMG:  Solving for p, Initial residual = 0.011870637, Final residual = 9.7280259e-05, No Iterations 3
time step continuity errors : sum local = 7.1660856e-06, global = 9.4488495e-08, cumulative = 0.00017347445
ExecutionTime = 11.453874 s  ClockTime = 12 s

Time = 64s

smoothSolver:  Solving for Ux, Initial residual = 0.0012179676, Final residual = 4.1439667e-05, No Iterations 3
smoothSolver:  Solving for Uy, Initial residual = 0.010095979, Final residual = 0.00034163427, No Iterations 3
smoothSolver:  Solving for Uz, Initial residual = 0.0016333669, Final residual = 5.6168017e-05, No Iterations 3
GAMG:  Solving for p, Initial residual = 0.01170584, Final residual = 0.00010099896, No Iterations 3
time step continuity errors : sum local = 7.4496761e-06, global = 1.0068951e-07, cumulative = 0.00017357514
ExecutionTime = 11.618021 s  ClockTime = 12 s

Time = 65s

smoothSolver:  Solving for Ux, Initial residual = 0.0012081269, Final residual = 4.1114098e-05, No Iterations 3
smoothSolver:  Solving for Uy, Initial residual = 0.0099330632, Final residual = 0.00033629157, No Iterations 3
smoothSolver:  Solving for Uz, Initial residual = 0.0016116196, Final residual = 5.5466949e-05, No Iterations 3
GAMG:  Solving for p, Initial residual = 0.011552819, Final residual = 0.00010425169, No Iterations 3
time step continuity errors : sum local = 7.698769e-06, global = 1.0492507e-07, cumulative = 0.00017368006
ExecutionTime = 11.782551 s  ClockTime = 12 s

Time = 66s

smoothSolver:  Solving for Ux, Initial residual = 0.0011988753, Final residual = 4.0806152e-05, No Iterations 3
smoothSolver:  Solving for Uy, Initial residual = 0.0097768633, Final residual = 0.00033118116, No Iterations 3
smoothSolver:  Solving for Uz, Initial residual = 0.0015904104, Final residual = 5.4779035e-05, No Iterations 3
GAMG:  Solving for p, Initial residual = 0.011406202, Final residual = 0.00010467429, No Iterations 3
time step continuity errors : sum local = 7.7382508e-06, global = 1.0611216e-07, cumulative = 0.00017378618
ExecutionTime = 11.947231 s  ClockTime = 12 s

Time = 67s

smoothSolver:  Solving for Ux, Initial residual = 0.0011901425, Final residual = 4.0515027e-05, No Iterations 3
smoothSolver:  Solving for Uy, Initial residual = 0.009626878, Final residual = 0.00032628218, No Iterations 3
smoothSolver:  Solving for Uz, Initial residual = 0.0015696976, Final residual = 5.4104953e-05, No Iterations 3
GAMG:  Solving for p, Initial residual = 0.011262125, Final residual = 0.00010228995, No Iterations 3
time step continuity errors : sum local = 7.5695261e-06, global = 1.0502e-07, cumulative = 0.0001738912
ExecutionTime = 12.111902 s  ClockTime = 13 s

Time = 68s

smoothSolver:  Solving for Ux, Initial residual = 0.0011818813, Final residual = 4.0240843e-05, No Iterations 3
smoothSolver:  Solving for Uy, Initial residual = 0.0094820472, Final residual = 0.0003216012, No Iterations 3
smoothSolver:  Solving for Uz, Initial residual = 0.0015494937, Final residual = 5.344665e-05, No Iterations 3
GAMG:  Solving for p, Initial residual = 0.011122233, Final residual = 9.8312327e-05, No Iterations 3
time step continuity errors : sum local = 7.2824585e-06, global = 1.0252826e-07, cumulative = 0.00017399372
ExecutionTime = 12.276256 s  ClockTime = 13 s

Time = 69s

smoothSolver:  Solving for Ux, Initial residual = 0.0011741221, Final residual = 3.9982824e-05, No Iterations 3
smoothSolver:  Solving for Uy, Initial residual = 0.0093421015, Final residual = 0.00031708228, No Iterations 3
smoothSolver:  Solving for Uz, Initial residual = 0.0015298175, Final residual = 5.2805639e-05, No Iterations 3
GAMG:  Solving for p, Initial residual = 0.010983549, Final residual = 9.4448981e-05, No Iterations 3
time step continuity errors : sum local = 7.0036139e-06, global = 9.9198352e-08, cumulative = 0.00017409292
ExecutionTime = 12.438965 s  ClockTime = 13 s

Time = 70s

smoothSolver:  Solving for Ux, Initial residual = 0.0011668952, Final residual = 3.9741684e-05, No Iterations 3
smoothSolver:  Solving for Uy, Initial residual = 0.0092074621, Final residual = 0.0003127487, No Iterations 3
smoothSolver:  Solving for Uz, Initial residual = 0.0015106801, Final residual = 5.2181001e-05, No Iterations 3
GAMG:  Solving for p, Initial residual = 0.010850244, Final residual = 9.2056526e-05, No Iterations 3
time step continuity errors : sum local = 6.8337007e-06, global = 9.6009962e-08, cumulative = 0.00017418893
ExecutionTime = 12.60597 s  ClockTime = 13 s

Time = 71s

smoothSolver:  Solving for Ux, Initial residual = 0.0011601766, Final residual = 3.9517975e-05, No Iterations 3
smoothSolver:  Solving for Uy, Initial residual = 0.0090783144, Final residual = 0.0003085954, No Iterations 3
smoothSolver:  Solving for Uz, Initial residual = 0.0014920618, Final residual = 5.1572117e-05, No Iterations 3
GAMG:  Solving for p, Initial residual = 0.010721818, Final residual = 9.1225918e-05, No Iterations 3
time step continuity errors : sum local = 6.7796747e-06, global = 9.4013528e-08, cumulative = 0.00017428295
ExecutionTime = 12.775881 s  ClockTime = 13 s

Time = 72s

smoothSolver:  Solving for Ux, Initial residual = 0.0011539023, Final residual = 3.9308915e-05, No Iterations 3
smoothSolver:  Solving for Uy, Initial residual = 0.0089541489, Final residual = 0.00030464509, No Iterations 3
smoothSolver:  Solving for Uz, Initial residual = 0.0014739337, Final residual = 5.0978558e-05, No Iterations 3
GAMG:  Solving for p, Initial residual = 0.010601127, Final residual = 9.1195044e-05, No Iterations 3
time step continuity errors : sum local = 6.7849765e-06, global = 9.3521147e-08, cumulative = 0.00017437647
ExecutionTime = 12.947189 s  ClockTime = 13 s

Time = 73s

smoothSolver:  Solving for Ux, Initial residual = 0.0011479563, Final residual = 3.9110095e-05, No Iterations 3
smoothSolver:  Solving for Uy, Initial residual = 0.0088337922, Final residual = 0.00030085908, No Iterations 3
smoothSolver:  Solving for Uz, Initial residual = 0.0014562631, Final residual = 5.039858e-05, No Iterations 3
GAMG:  Solving for p, Initial residual = 0.010486623, Final residual = 9.1073143e-05, No Iterations 3
time step continuity errors : sum local = 6.7833172e-06, global = 9.4172984e-08, cumulative = 0.00017447064
ExecutionTime = 13.111678 s  ClockTime = 14 s

Time = 74s

smoothSolver:  Solving for Ux, Initial residual = 0.0011422485, Final residual = 3.8920064e-05, No Iterations 3
smoothSolver:  Solving for Uy, Initial residual = 0.0087159659, Final residual = 0.00029715412, No Iterations 3
smoothSolver:  Solving for Uz, Initial residual = 0.00143903, Final residual = 4.9832687e-05, No Iterations 3
GAMG:  Solving for p, Initial residual = 0.010377149, Final residual = 9.0357083e-05, No Iterations 3
time step continuity errors : sum local = 6.7371873e-06, global = 9.5495237e-08, cumulative = 0.00017456614
ExecutionTime = 13.27552 s  ClockTime = 14 s

Time = 75s

smoothSolver:  Solving for Ux, Initial residual = 0.0011367584, Final residual = 3.8735972e-05, No Iterations 3
smoothSolver:  Solving for Uy, Initial residual = 0.0085999089, Final residual = 0.0002934994, No Iterations 3
smoothSolver:  Solving for Uz, Initial residual = 0.0014222256, Final residual = 4.9279899e-05, No Iterations 3
GAMG:  Solving for p, Initial residual = 0.010270891, Final residual = 8.9026525e-05, No Iterations 3
time step continuity errors : sum local = 6.6450191e-06, global = 9.6960947e-08, cumulative = 0.0001746631
ExecutionTime = 13.438967 s  ClockTime = 14 s

Time = 76s

smoothSolver:  Solving for Ux, Initial residual = 0.0011315106, Final residual = 3.8558188e-05, No Iterations 3
smoothSolver:  Solving for Uy, Initial residual = 0.008486071, Final residual = 0.0002898961, No Iterations 3
smoothSolver:  Solving for Uz, Initial residual = 0.0014058496, Final residual = 4.8739779e-05, No Iterations 3
GAMG:  Solving for p, Initial residual = 0.010161961, Final residual = 8.7408813e-05, No Iterations 3
time step continuity errors : sum local = 6.5312182e-06, global = 9.7827473e-08, cumulative = 0.00017476092
ExecutionTime = 13.603134 s  ClockTime = 14 s

Time = 77s

smoothSolver:  Solving for Ux, Initial residual = 0.0011265061, Final residual = 3.83887e-05, No Iterations 3
smoothSolver:  Solving for Uy, Initial residual = 0.0083749246, Final residual = 0.00028636614, No Iterations 3
smoothSolver:  Solving for Uz, Initial residual = 0.0013898511, Final residual = 4.8211525e-05, No Iterations 3
GAMG:  Solving for p, Initial residual = 0.010050518, Final residual = 8.592867e-05, No Iterations 3
time step continuity errors : sum local = 6.4274933e-06, global = 9.7498271e-08, cumulative = 0.00017485842
ExecutionTime = 13.766731 s  ClockTime = 14 s

Time = 78s

smoothSolver:  Solving for Ux, Initial residual = 0.0011217616, Final residual = 3.8227851e-05, No Iterations 3
smoothSolver:  Solving for Uy, Initial residual = 0.0082666938, Final residual = 0.00028288217, No Iterations 3
smoothSolver:  Solving for Uz, Initial residual = 0.0013742128, Final residual = 4.7694107e-05, No Iterations 3
GAMG:  Solving for p, Initial residual = 0.0099446683, Final residual = 8.4830084e-05, No Iterations 3
time step continuity errors : sum local = 6.352155e-06, global = 9.6088907e-08, cumulative = 0.00017495451
ExecutionTime = 13.932127 s  ClockTime = 14 s

Time = 79s

smoothSolver:  Solving for Ux, Initial residual = 0.001117255, Final residual = 3.8074987e-05, No Iterations 3
smoothSolver:  Solving for Uy, Initial residual = 0.0081615223, Final residual = 0.00027946945, No Iterations 3
smoothSolver:  Solving for Uz, Initial residual = 0.0013589389, Final residual = 4.7186488e-05, No Iterations 3
GAMG:  Solving for p, Initial residual = 0.0098439315, Final residual = 8.4060686e-05, No Iterations 3
time step continuity errors : sum local = 6.3013047e-06, global = 9.3998597e-08, cumulative = 0.00017504851
ExecutionTime = 14.095854 s  ClockTime = 15 s

Time = 80s

smoothSolver:  Solving for Ux, Initial residual = 0.0011129575, Final residual = 3.792967e-05, No Iterations 3
smoothSolver:  Solving for Uy, Initial residual = 0.0080588707, Final residual = 0.00027611786, No Iterations 3
smoothSolver:  Solving for Uz, Initial residual = 0.0013440148, Final residual = 4.6689393e-05, No Iterations 3
GAMG:  Solving for p, Initial residual = 0.0097487386, Final residual = 8.3416448e-05, No Iterations 3
time step continuity errors : sum local = 6.2596966e-06, global = 9.1944231e-08, cumulative = 0.00017514045
ExecutionTime = 14.259931 s  ClockTime = 15 s

Time = 81s

smoothSolver:  Solving for Ux, Initial residual = 0.0011088603, Final residual = 3.7791467e-05, No Iterations 3
smoothSolver:  Solving for Uy, Initial residual = 0.0079588079, Final residual = 0.00027281418, No Iterations 3
smoothSolver:  Solving for Uz, Initial residual = 0.0013294376, Final residual = 4.6203356e-05, No Iterations 3
GAMG:  Solving for p, Initial residual = 0.0096566286, Final residual = 8.2765538e-05, No Iterations 3
time step continuity errors : sum local = 6.2175156e-06, global = 9.0579382e-08, cumulative = 0.00017523103
ExecutionTime = 14.423943 s  ClockTime = 15 s

Time = 82s

smoothSolver:  Solving for Ux, Initial residual = 0.0011049354, Final residual = 3.7659343e-05, No Iterations 3
smoothSolver:  Solving for Uy, Initial residual = 0.0078607635, Final residual = 0.00026957025, No Iterations 3
smoothSolver:  Solving for Uz, Initial residual = 0.001315221, Final residual = 4.5728096e-05, No Iterations 3
GAMG:  Solving for p, Initial residual = 0.0095652443, Final residual = 8.207162e-05, No Iterations 3
time step continuity errors : sum local = 6.172055e-06, global = 9.0029459e-08, cumulative = 0.00017532106
ExecutionTime = 14.588983 s  ClockTime = 15 s

Time = 83s

smoothSolver:  Solving for Ux, Initial residual = 0.0011011815, Final residual = 3.7532293e-05, No Iterations 3
smoothSolver:  Solving for Uy, Initial residual = 0.0077650516, Final residual = 0.00026636075, No Iterations 3
smoothSolver:  Solving for Uz, Initial residual = 0.0013013326, Final residual = 4.5263698e-05, No Iterations 3
GAMG:  Solving for p, Initial residual = 0.009469482, Final residual = 8.1285573e-05, No Iterations 3
time step continuity errors : sum local = 6.1195602e-06, global = 9.007788e-08, cumulative = 0.00017541114
ExecutionTime = 14.75366 s  ClockTime = 15 s

Time = 84s

smoothSolver:  Solving for Ux, Initial residual = 0.0010975716, Final residual = 3.7411311e-05, No Iterations 3
smoothSolver:  Solving for Uy, Initial residual = 0.0076715787, Final residual = 0.00026318438, No Iterations 3
smoothSolver:  Solving for Uz, Initial residual = 0.0012877535, Final residual = 4.4809199e-05, No Iterations 3
GAMG:  Solving for p, Initial residual = 0.0093733203, Final residual = 8.0507871e-05, No Iterations 3
time step continuity errors : sum local = 6.0676042e-06, global = 9.0294425e-08, cumulative = 0.00017550144
ExecutionTime = 14.918667 s  ClockTime = 15 s

Time = 85s

smoothSolver:  Solving for Ux, Initial residual = 0.0010941079, Final residual = 3.7296095e-05, No Iterations 3
smoothSolver:  Solving for Uy, Initial residual = 0.0075794614, Final residual = 0.000260035, No Iterations 3
smoothSolver:  Solving for Uz, Initial residual = 0.0012744857, Final residual = 4.4364929e-05, No Iterations 3
GAMG:  Solving for p, Initial residual = 0.0092778829, Final residual = 7.9719012e-05, No Iterations 3
time step continuity errors : sum local = 6.0147249e-06, global = 9.0372422e-08, cumulative = 0.00017559181
ExecutionTime = 15.083942 s  ClockTime = 16 s

Time = 86s

smoothSolver:  Solving for Ux, Initial residual = 0.0010907557, Final residual = 3.7186692e-05, No Iterations 3
smoothSolver:  Solving for Uy, Initial residual = 0.007488654, Final residual = 0.00025690243, No Iterations 3
smoothSolver:  Solving for Uz, Initial residual = 0.0012614982, Final residual = 4.3930132e-05, No Iterations 3
GAMG:  Solving for p, Initial residual = 0.0091846679, Final residual = 7.8880982e-05, No Iterations 3
time step continuity errors : sum local = 5.9579794e-06, global = 9.0043553e-08, cumulative = 0.00017568185
ExecutionTime = 15.252699 s  ClockTime = 16 s

Time = 87s

smoothSolver:  Solving for Ux, Initial residual = 0.001087507, Final residual = 3.7081508e-05, No Iterations 3
smoothSolver:  Solving for Uy, Initial residual = 0.0073990017, Final residual = 0.00025378094, No Iterations 3
smoothSolver:  Solving for Uz, Initial residual = 0.0012487714, Final residual = 4.3503704e-05, No Iterations 3
GAMG:  Solving for p, Initial residual = 0.009095714, Final residual = 7.7985288e-05, No Iterations 3
time step continuity errors : sum local = 5.8967286e-06, global = 8.9023273e-08, cumulative = 0.00017577087
ExecutionTime = 15.416875 s  ClockTime = 16 s

Time = 88s

smoothSolver:  Solving for Ux, Initial residual = 0.0010843406, Final residual = 3.6980301e-05, No Iterations 3
smoothSolver:  Solving for Uy, Initial residual = 0.0073102338, Final residual = 0.00025068319, No Iterations 3
smoothSolver:  Solving for Uz, Initial residual = 0.0012363054, Final residual = 4.3085312e-05, No Iterations 3
GAMG:  Solving for p, Initial residual = 0.0090103117, Final residual = 7.7084211e-05, No Iterations 3
time step continuity errors : sum local = 5.8349315e-06, global = 8.7362884e-08, cumulative = 0.00017585824
ExecutionTime = 15.580716 s  ClockTime = 16 s

Time = 89s

smoothSolver:  Solving for Ux, Initial residual = 0.0010812417, Final residual = 3.6883066e-05, No Iterations 3
smoothSolver:  Solving for Uy, Initial residual = 0.0072220871, Final residual = 0.00024762501, No Iterations 3
smoothSolver:  Solving for Uz, Initial residual = 0.0012240941, Final residual = 4.2675538e-05, No Iterations 3
GAMG:  Solving for p, Initial residual = 0.0089237497, Final residual = 7.6227393e-05, No Iterations 3
time step continuity errors : sum local = 5.7763187e-06, global = 8.5584282e-08, cumulative = 0.00017594382
ExecutionTime = 15.744937 s  ClockTime = 16 s

Time = 90s

smoothSolver:  Solving for Ux, Initial residual = 0.00107823, Final residual = 3.6789996e-05, No Iterations 3
smoothSolver:  Solving for Uy, Initial residual = 0.0071351386, Final residual = 0.00024461046, No Iterations 3
smoothSolver:  Solving for Uz, Initial residual = 0.0012121344, Final residual = 4.2274231e-05, No Iterations 3
GAMG:  Solving for p, Initial residual = 0.008841412, Final residual = 7.5430688e-05, No Iterations 3
time step continuity errors : sum local = 5.722085e-06, global = 8.4016634e-08, cumulative = 0.00017602784
ExecutionTime = 15.91039 s  ClockTime = 16 s

Time = 91s

smoothSolver:  Solving for Ux, Initial residual = 0.001075319, Final residual = 3.6700536e-05, No Iterations 3
smoothSolver:  Solving for Uy, Initial residual = 0.0070497917, Final residual = 0.00024165913, No Iterations 3
smoothSolver:  Solving for Uz, Initial residual = 0.0012004237, Final residual = 4.1880877e-05, No Iterations 3
GAMG:  Solving for p, Initial residual = 0.0087596193, Final residual = 7.4644865e-05, No Iterations 3
time step continuity errors : sum local = 5.66852e-06, global = 8.2710353e-08, cumulative = 0.00017611055
ExecutionTime = 16.07519 s  ClockTime = 17 s

Time = 92s

smoothSolver:  Solving for Ux, Initial residual = 0.0010725085, Final residual = 3.6614516e-05, No Iterations 3
smoothSolver:  Solving for Uy, Initial residual = 0.0069662201, Final residual = 0.00023875961, No Iterations 3
smoothSolver:  Solving for Uz, Initial residual = 0.0011889432, Final residual = 4.1495313e-05, No Iterations 3
GAMG:  Solving for p, Initial residual = 0.0086775711, Final residual = 7.3877024e-05, No Iterations 3
time step continuity errors : sum local = 5.6162059e-06, global = 8.1674989e-08, cumulative = 0.00017619222
ExecutionTime = 16.238145 s  ClockTime = 17 s

Time = 93s

smoothSolver:  Solving for Ux, Initial residual = 0.0010697808, Final residual = 3.653286e-05, No Iterations 3
smoothSolver:  Solving for Uy, Initial residual = 0.0068841344, Final residual = 0.00023592482, No Iterations 3
smoothSolver:  Solving for Uz, Initial residual = 0.0011776931, Final residual = 4.1117986e-05, No Iterations 3
GAMG:  Solving for p, Initial residual = 0.0085990481, Final residual = 7.3229682e-05, No Iterations 3
time step continuity errors : sum local = 5.5729622e-06, global = 8.1252213e-08, cumulative = 0.00017627348
ExecutionTime = 16.402435 s  ClockTime = 17 s

Time = 94s

smoothSolver:  Solving for Ux, Initial residual = 0.0010671373, Final residual = 3.6455428e-05, No Iterations 3
smoothSolver:  Solving for Uy, Initial residual = 0.0068033362, Final residual = 0.00023313004, No Iterations 3
smoothSolver:  Solving for Uz, Initial residual = 0.0011666607, Final residual = 4.0748037e-05, No Iterations 3
GAMG:  Solving for p, Initial residual = 0.0085236496, Final residual = 7.2626042e-05, No Iterations 3
time step continuity errors : sum local = 5.5329467e-06, global = 8.1023823e-08, cumulative = 0.0001763545
ExecutionTime = 16.567035 s  ClockTime = 17 s

Time = 95s

smoothSolver:  Solving for Ux, Initial residual = 0.0010645576, Final residual = 3.6381263e-05, No Iterations 3
smoothSolver:  Solving for Uy, Initial residual = 0.0067231654, Final residual = 0.00023037693, No Iterations 3
smoothSolver:  Solving for Uz, Initial residual = 0.0011558433, Final residual = 4.0385183e-05, No Iterations 3
GAMG:  Solving for p, Initial residual = 0.0084508477, Final residual = 7.2096282e-05, No Iterations 3
time step continuity errors : sum local = 5.4984783e-06, global = 8.0956068e-08, cumulative = 0.00017643546
ExecutionTime = 16.731717 s  ClockTime = 17 s

Time = 96s

smoothSolver:  Solving for Ux, Initial residual = 0.0010620321, Final residual = 3.6309479e-05, No Iterations 3
smoothSolver:  Solving for Uy, Initial residual = 0.0066439902, Final residual = 0.00022766729, No Iterations 3
smoothSolver:  Solving for Uz, Initial residual = 0.0011452286, Final residual = 4.0029012e-05, No Iterations 3
GAMG:  Solving for p, Initial residual = 0.0083841172, Final residual = 7.1638317e-05, No Iterations 3
time step continuity errors : sum local = 5.4693992e-06, global = 8.0815989e-08, cumulative = 0.00017651627
ExecutionTime = 16.896853 s  ClockTime = 17 s

Time = 97s

smoothSolver:  Solving for Ux, Initial residual = 0.0010595627, Final residual = 3.6238863e-05, No Iterations 3
smoothSolver:  Solving for Uy, Initial residual = 0.0065657366, Final residual = 0.00022499716, No Iterations 3
smoothSolver:  Solving for Uz, Initial residual = 0.0011348207, Final residual = 3.9679591e-05, No Iterations 3
GAMG:  Solving for p, Initial residual = 0.0083211223, Final residual = 7.1213889e-05, No Iterations 3
time step continuity errors : sum local = 5.4427906e-06, global = 8.0433303e-08, cumulative = 0.00017659671
ExecutionTime = 17.061572 s  ClockTime = 18 s

Time = 98s

smoothSolver:  Solving for Ux, Initial residual = 0.0010571506, Final residual = 3.6170828e-05, No Iterations 3
smoothSolver:  Solving for Uy, Initial residual = 0.0064884987, Final residual = 0.0002223833, No Iterations 3
smoothSolver:  Solving for Uz, Initial residual = 0.0011246026, Final residual = 3.933673e-05, No Iterations 3
GAMG:  Solving for p, Initial residual = 0.0082607053, Final residual = 7.0806091e-05, No Iterations 3
time step continuity errors : sum local = 5.417364e-06, global = 7.9946506e-08, cumulative = 0.00017667665
ExecutionTime = 17.223873 s  ClockTime = 18 s

Time = 99s

smoothSolver:  Solving for Ux, Initial residual = 0.001054784, Final residual = 3.6104204e-05, No Iterations 3
smoothSolver:  Solving for Uy, Initial residual = 0.0064124352, Final residual = 0.00021981402, No Iterations 3
smoothSolver:  Solving for Uz, Initial residual = 0.0011145661, Final residual = 3.9000258e-05, No Iterations 3
GAMG:  Solving for p, Initial residual = 0.0081996248, Final residual = 7.0312512e-05, No Iterations 3
time step continuity errors : sum local = 5.3852455e-06, global = 7.9053697e-08, cumulative = 0.00017675571
ExecutionTime = 17.387441 s  ClockTime = 18 s

Time = 100s

smoothSolver:  Solving for Ux, Initial residual = 0.0010524678, Final residual = 3.6038843e-05, No Iterations 3
smoothSolver:  Solving for Uy, Initial residual = 0.0063375732, Final residual = 0.00021729306, No Iterations 3
smoothSolver:  Solving for Uz, Initial residual = 0.0011047107, Final residual = 3.8669387e-05, No Iterations 3
GAMG:  Solving for p, Initial residual = 0.0081375375, Final residual = 6.9732559e-05, No Iterations 3
time step continuity errors : sum local = 5.3463328e-06, global = 7.807522e-08, cumulative = 0.00017683378
ExecutionTime = 17.551032 s  ClockTime = 18 s

Time = 101s

smoothSolver:  Solving for Ux, Initial residual = 0.0010501819, Final residual = 3.5975154e-05, No Iterations 3
smoothSolver:  Solving for Uy, Initial residual = 0.0062635072, Final residual = 0.00021479834, No Iterations 3
smoothSolver:  Solving for Uz, Initial residual = 0.0010950209, Final residual = 3.8343803e-05, No Iterations 3
GAMG:  Solving for p, Initial residual = 0.0080785501, Final residual = 6.9062785e-05, No Iterations 3
time step continuity errors : sum local = 5.3003692e-06, global = 7.7097239e-08, cumulative = 0.00017691088
ExecutionTime = 17.715038 s  ClockTime = 18 s

Time = 102s

smoothSolver:  Solving for Ux, Initial residual = 0.0010479168, Final residual = 3.5912775e-05, No Iterations 3
smoothSolver:  Solving for Uy, Initial residual = 0.0061902356, Final residual = 0.00021230681, No Iterations 3
smoothSolver:  Solving for Uz, Initial residual = 0.0010854893, Final residual = 3.802329e-05, No Iterations 3
GAMG:  Solving for p, Initial residual = 0.0080242134, Final residual = 6.8369994e-05, No Iterations 3
time step continuity errors : sum local = 5.2524927e-06, global = 7.6234064e-08, cumulative = 0.00017698711
ExecutionTime = 17.878278 s  ClockTime = 18 s

Time = 103s

smoothSolver:  Solving for Ux, Initial residual = 0.0010456599, Final residual = 3.5851824e-05, No Iterations 3
smoothSolver:  Solving for Uy, Initial residual = 0.0061181333, Final residual = 0.00020982436, No Iterations 3
smoothSolver:  Solving for Uz, Initial residual = 0.0010761182, Final residual = 3.7707607e-05, No Iterations 3
GAMG:  Solving for p, Initial residual = 0.0079698607, Final residual = 6.7606439e-05, No Iterations 3
time step continuity errors : sum local = 5.1990225e-06, global = 7.6628914e-08, cumulative = 0.00017706374
ExecutionTime = 18.044162 s  ClockTime = 19 s

Time = 104s

smoothSolver:  Solving for Ux, Initial residual = 0.0010434216, Final residual = 3.5791743e-05, No Iterations 3
smoothSolver:  Solving for Uy, Initial residual = 0.0060460957, Final residual = 0.000207344, No Iterations 3
smoothSolver:  Solving for Uz, Initial residual = 0.0010669016, Final residual = 3.7396654e-05, No Iterations 3
GAMG:  Solving for p, Initial residual = 0.0079146411, Final residual = 6.6965514e-05, No Iterations 3
time step continuity errors : sum local = 5.1548522e-06, global = 7.6362035e-08, cumulative = 0.0001771401
ExecutionTime = 18.206422 s  ClockTime = 19 s

Time = 105s

smoothSolver:  Solving for Ux, Initial residual = 0.0010411929, Final residual = 3.5731674e-05, No Iterations 3
smoothSolver:  Solving for Uy, Initial residual = 0.0059741852, Final residual = 0.000204882, No Iterations 3
smoothSolver:  Solving for Uz, Initial residual = 0.0010578195, Final residual = 3.7090411e-05, No Iterations 3
GAMG:  Solving for p, Initial residual = 0.0078621058, Final residual = 6.6395302e-05, No Iterations 3
time step continuity errors : sum local = 5.1159927e-06, global = 7.5726541e-08, cumulative = 0.00017721583
ExecutionTime = 18.370301 s  ClockTime = 19 s

Time = 106s

smoothSolver:  Solving for Ux, Initial residual = 0.0010390146, Final residual = 3.5672914e-05, No Iterations 3
smoothSolver:  Solving for Uy, Initial residual = 0.0059025011, Final residual = 0.0002024312, No Iterations 3
smoothSolver:  Solving for Uz, Initial residual = 0.0010488828, Final residual = 3.678878e-05, No Iterations 3
GAMG:  Solving for p, Initial residual = 0.0078115115, Final residual = 6.5842594e-05, No Iterations 3
time step continuity errors : sum local = 5.078346e-06, global = 7.4781521e-08, cumulative = 0.00017729061
ExecutionTime = 18.533841 s  ClockTime = 19 s

Time = 107s

smoothSolver:  Solving for Ux, Initial residual = 0.0010368566, Final residual = 3.5616295e-05, No Iterations 3
smoothSolver:  Solving for Uy, Initial residual = 0.0058313747, Final residual = 0.00019999736, No Iterations 3
smoothSolver:  Solving for Uz, Initial residual = 0.0010400859, Final residual = 3.6491713e-05, No Iterations 3
GAMG:  Solving for p, Initial residual = 0.0077606269, Final residual = 6.5343284e-05, No Iterations 3
time step continuity errors : sum local = 5.0446857e-06, global = 7.3985837e-08, cumulative = 0.0001773646
ExecutionTime = 18.698528 s  ClockTime = 19 s

Time = 108s

smoothSolver:  Solving for Ux, Initial residual = 0.0010347008, Final residual = 3.556056e-05, No Iterations 3
smoothSolver:  Solving for Uy, Initial residual = 0.0057610843, Final residual = 0.00019757364, No Iterations 3
smoothSolver:  Solving for Uz, Initial residual = 0.0010314207, Final residual = 3.6199515e-05, No Iterations 3
GAMG:  Solving for p, Initial residual = 0.0077113514, Final residual = 6.4738992e-05, No Iterations 3
time step continuity errors : sum local = 5.0028062e-06, global = 7.2695825e-08, cumulative = 0.00017743729
ExecutionTime = 18.862173 s  ClockTime = 19 s

Time = 109s

smoothSolver:  Solving for Ux, Initial residual = 0.0010325343, Final residual = 3.5504345e-05, No Iterations 3
smoothSolver:  Solving for Uy, Initial residual = 0.0056917516, Final residual = 0.00019516063, No Iterations 3
smoothSolver:  Solving for Uz, Initial residual = 0.0010228838, Final residual = 3.5911367e-05, No Iterations 3
GAMG:  Solving for p, Initial residual = 0.0076641647, Final residual = 6.4121053e-05, No Iterations 3
time step continuity errors : sum local = 4.9597541e-06, global = 7.1397745e-08, cumulative = 0.00017750869
ExecutionTime = 19.026808 s  ClockTime = 20 s

Time = 110s

smoothSolver:  Solving for Ux, Initial residual = 0.0010303743, Final residual = 3.5448718e-05, No Iterations 3
smoothSolver:  Solving for Uy, Initial residual = 0.0056231518, Final residual = 0.00019277569, No Iterations 3
smoothSolver:  Solving for Uz, Initial residual = 0.0010144869, Final residual = 3.562764e-05, No Iterations 3
GAMG:  Solving for p, Initial residual = 0.0076155534, Final residual = 6.3555749e-05, No Iterations 3
time step continuity errors : sum local = 4.9206655e-06, global = 7.0004208e-08, cumulative = 0.00017757869
ExecutionTime = 19.191361 s  ClockTime = 20 s

Time = 111s

smoothSolver:  Solving for Ux, Initial residual = 0.0010282214, Final residual = 3.5394423e-05, No Iterations 3
smoothSolver:  Solving for Uy, Initial residual = 0.0055553584, Final residual = 0.00019042066, No Iterations 3
smoothSolver:  Solving for Uz, Initial residual = 0.0010062211, Final residual = 3.5348712e-05, No Iterations 3
GAMG:  Solving for p, Initial residual = 0.0075663456, Final residual = 6.3080895e-05, No Iterations 3
time step continuity errors : sum local = 4.8884872e-06, global = 6.8833395e-08, cumulative = 0.00017764753
ExecutionTime = 19.357846 s  ClockTime = 20 s

Time = 112s

smoothSolver:  Solving for Ux, Initial residual = 0.0010260733, Final residual = 3.5339874e-05, No Iterations 3
smoothSolver:  Solving for Uy, Initial residual = 0.0054888424, Final residual = 0.00018810377, No Iterations 3
smoothSolver:  Solving for Uz, Initial residual = 0.00099808107, Final residual = 3.5074226e-05, No Iterations 3
GAMG:  Solving for p, Initial residual = 0.0075189402, Final residual = 6.2673763e-05, No Iterations 3
time step continuity errors : sum local = 4.8615182e-06, global = 6.7699009e-08, cumulative = 0.00017771523
ExecutionTime = 19.523711 s  ClockTime = 20 s

Time = 113s

smoothSolver:  Solving for Ux, Initial residual = 0.0010239299, Final residual = 3.5285923e-05, No Iterations 3
smoothSolver:  Solving for Uy, Initial residual = 0.0054237721, Final residual = 0.00018583542, No Iterations 3
smoothSolver:  Solving for Uz, Initial residual = 0.00099006703, Final residual = 3.4804071e-05, No Iterations 3
GAMG:  Solving for p, Initial residual = 0.0074714968, Final residual = 6.2254319e-05, No Iterations 3
time step continuity errors : sum local = 4.8335475e-06, global = 6.651944e-08, cumulative = 0.00017778175
ExecutionTime = 19.68968 s  ClockTime = 20 s

Time = 114s

smoothSolver:  Solving for Ux, Initial residual = 0.0010218029, Final residual = 3.5233133e-05, No Iterations 3
smoothSolver:  Solving for Uy, Initial residual = 0.0053599746, Final residual = 0.00018360671, No Iterations 3
smoothSolver:  Solving for Uz, Initial residual = 0.00098217601, Final residual = 3.4537804e-05, No Iterations 3
GAMG:  Solving for p, Initial residual = 0.007424707, Final residual = 6.1768075e-05, No Iterations 3
time step continuity errors : sum local = 4.8003338e-06, global = 6.5296515e-08, cumulative = 0.00017784704
ExecutionTime = 19.853897 s  ClockTime = 20 s

Time = 115s

smoothSolver:  Solving for Ux, Initial residual = 0.0010196646, Final residual = 3.517977e-05, No Iterations 3
smoothSolver:  Solving for Uy, Initial residual = 0.0052970922, Final residual = 0.00018140141, No Iterations 3
smoothSolver:  Solving for Uz, Initial residual = 0.00097440027, Final residual = 3.4275556e-05, No Iterations 3
GAMG:  Solving for p, Initial residual = 0.007377672, Final residual = 6.1208842e-05, No Iterations 3
time step continuity errors : sum local = 4.7613918e-06, global = 6.4054942e-08, cumulative = 0.0001779111
ExecutionTime = 20.01893 s  ClockTime = 21 s

Time = 116s

smoothSolver:  Solving for Ux, Initial residual = 0.0010175004, Final residual = 3.5126111e-05, No Iterations 3
smoothSolver:  Solving for Uy, Initial residual = 0.0052347047, Final residual = 0.00017921396, No Iterations 3
smoothSolver:  Solving for Uz, Initial residual = 0.00096672889, Final residual = 3.4017489e-05, No Iterations 3
GAMG:  Solving for p, Initial residual = 0.0073263559, Final residual = 6.0581242e-05, No Iterations 3
time step continuity errors : sum local = 4.7170396e-06, global = 6.2905931e-08, cumulative = 0.000177974
ExecutionTime = 20.185415 s  ClockTime = 21 s

Time = 117s

smoothSolver:  Solving for Ux, Initial residual = 0.0010153102, Final residual = 3.5070487e-05, No Iterations 3
smoothSolver:  Solving for Uy, Initial residual = 0.0051727466, Final residual = 0.00017702415, No Iterations 3
smoothSolver:  Solving for Uz, Initial residual = 0.00095915857, Final residual = 3.3762882e-05, No Iterations 3
GAMG:  Solving for p, Initial residual = 0.0072773692, Final residual = 5.9987476e-05, No Iterations 3
time step continuity errors : sum local = 4.6752534e-06, global = 6.1901527e-08, cumulative = 0.00017803591
ExecutionTime = 20.35108 s  ClockTime = 21 s

Time = 118s

smoothSolver:  Solving for Ux, Initial residual = 0.0010131046, Final residual = 3.5012726e-05, No Iterations 3
smoothSolver:  Solving for Uy, Initial residual = 0.0051111836, Final residual = 0.00017483701, No Iterations 3
smoothSolver:  Solving for Uz, Initial residual = 0.00095168558, Final residual = 3.3511665e-05, No Iterations 3
GAMG:  Solving for p, Initial residual = 0.0072322527, Final residual = 5.9507947e-05, No Iterations 3
time step continuity errors : sum local = 4.6422965e-06, global = 6.1066201e-08, cumulative = 0.00017809697
ExecutionTime = 20.516787 s  ClockTime = 21 s

Time = 119s

smoothSolver:  Solving for Ux, Initial residual = 0.0010108877, Final residual = 3.4952923e-05, No Iterations 3
smoothSolver:  Solving for Uy, Initial residual = 0.0050506369, Final residual = 0.00017267493, No Iterations 3
smoothSolver:  Solving for Uz, Initial residual = 0.0009443153, Final residual = 3.3263591e-05, No Iterations 3
GAMG:  Solving for p, Initial residual = 0.0071877928, Final residual = 5.9129723e-05, No Iterations 3
time step continuity errors : sum local = 4.6171806e-06, global = 6.0350359e-08, cumulative = 0.00017815732
ExecutionTime = 20.683644 s  ClockTime = 21 s

Time = 120s

smoothSolver:  Solving for Ux, Initial residual = 0.0010086529, Final residual = 3.489245e-05, No Iterations 3
smoothSolver:  Solving for Uy, Initial residual = 0.0049910337, Final residual = 0.00017054477, No Iterations 3
smoothSolver:  Solving for Uz, Initial residual = 0.0009370487, Final residual = 3.3018364e-05, No Iterations 3
GAMG:  Solving for p, Initial residual = 0.0071438064, Final residual = 5.8861961e-05, No Iterations 3
time step continuity errors : sum local = 4.6006272e-06, global = 5.9727487e-08, cumulative = 0.00017821705
ExecutionTime = 20.848675 s  ClockTime = 21 s

Time = 121s

smoothSolver:  Solving for Ux, Initial residual = 0.0010064258, Final residual = 3.4832102e-05, No Iterations 3
smoothSolver:  Solving for Uy, Initial residual = 0.0049326747, Final residual = 0.00016845905, No Iterations 3
smoothSolver:  Solving for Uz, Initial residual = 0.00092988086, Final residual = 3.2776364e-05, No Iterations 3
GAMG:  Solving for p, Initial residual = 0.0071001313, Final residual = 5.8684456e-05, No Iterations 3
time step continuity errors : sum local = 4.5910961e-06, global = 5.9231074e-08, cumulative = 0.00017827628
ExecutionTime = 21.013434 s  ClockTime = 22 s

Time = 122s

smoothSolver:  Solving for Ux, Initial residual = 0.0010041926, Final residual = 3.477017e-05, No Iterations 3
smoothSolver:  Solving for Uy, Initial residual = 0.0048755748, Final residual = 0.00016640864, No Iterations 3
smoothSolver:  Solving for Uz, Initial residual = 0.00092280299, Final residual = 3.2537475e-05, No Iterations 3
GAMG:  Solving for p, Initial residual = 0.0070559672, Final residual = 5.8505054e-05, No Iterations 3
time step continuity errors : sum local = 4.5813722e-06, global = 5.8655675e-08, cumulative = 0.00017833494
ExecutionTime = 21.176515 s  ClockTime = 22 s

Time = 123s

smoothSolver:  Solving for Ux, Initial residual = 0.0010019439, Final residual = 3.4706987e-05, No Iterations 3
smoothSolver:  Solving for Uy, Initial residual = 0.004819611, Final residual = 0.00016440431, No Iterations 3
smoothSolver:  Solving for Uz, Initial residual = 0.00091581165, Final residual = 3.2301534e-05, No Iterations 3
GAMG:  Solving for p, Initial residual = 0.0070136318, Final residual = 5.8241777e-05, No Iterations 3
time step continuity errors : sum local = 4.5650333e-06, global = 5.7999672e-08, cumulative = 0.00017839294
ExecutionTime = 21.34197 s  ClockTime = 22 s

Time = 124s

smoothSolver:  Solving for Ux, Initial residual = 0.00099968334, Final residual = 3.4641453e-05, No Iterations 3
smoothSolver:  Solving for Uy, Initial residual = 0.004764397, Final residual = 0.00016243695, No Iterations 3
smoothSolver:  Solving for Uz, Initial residual = 0.0009089048, Final residual = 3.2068055e-05, No Iterations 3
GAMG:  Solving for p, Initial residual = 0.0069714649, Final residual = 5.7868261e-05, No Iterations 3
time step continuity errors : sum local = 4.5400181e-06, global = 5.7218283e-08, cumulative = 0.00017845015
ExecutionTime = 21.50511 s  ClockTime = 22 s

Time = 125s

smoothSolver:  Solving for Ux, Initial residual = 0.00099738706, Final residual = 3.4574618e-05, No Iterations 3
smoothSolver:  Solving for Uy, Initial residual = 0.0047102215, Final residual = 0.00016050057, No Iterations 3
smoothSolver:  Solving for Uz, Initial residual = 0.00090207085, Final residual = 3.1837086e-05, No Iterations 3
GAMG:  Solving for p, Initial residual = 0.0069305549, Final residual = 5.7408476e-05, No Iterations 3
time step continuity errors : sum local = 4.5081767e-06, global = 5.6267179e-08, cumulative = 0.00017850642
ExecutionTime = 21.668812 s  ClockTime = 22 s

Time = 126s

smoothSolver:  Solving for Ux, Initial residual = 0.00099505357, Final residual = 3.4505505e-05, No Iterations 3
smoothSolver:  Solving for Uy, Initial residual = 0.0046568164, Final residual = 0.00015860727, No Iterations 3
smoothSolver:  Solving for Uz, Initial residual = 0.00089532173, Final residual = 3.1608587e-05, No Iterations 3
GAMG:  Solving for p, Initial residual = 0.0068902145, Final residual = 5.6951345e-05, No Iterations 3
time step continuity errors : sum local = 4.4764743e-06, global = 5.5829984e-08, cumulative = 0.00017856225
ExecutionTime = 21.833434 s  ClockTime = 22 s

Time = 127s

smoothSolver:  Solving for Ux, Initial residual = 0.00099266943, Final residual = 3.4434306e-05, No Iterations 3
smoothSolver:  Solving for Uy, Initial residual = 0.0046043932, Final residual = 0.00015675623, No Iterations 3
smoothSolver:  Solving for Uz, Initial residual = 0.00088864487, Final residual = 3.1383061e-05, No Iterations 3
GAMG:  Solving for p, Initial residual = 0.0068505073, Final residual = 5.6367117e-05, No Iterations 3
time step continuity errors : sum local = 4.4347133e-06, global = 5.7055693e-08, cumulative = 0.00017861931
ExecutionTime = 21.997599 s  ClockTime = 23 s

Time = 128s

smoothSolver:  Solving for Ux, Initial residual = 0.00099024179, Final residual = 3.4362298e-05, No Iterations 3
smoothSolver:  Solving for Uy, Initial residual = 0.00455257, Final residual = 0.00015493258, No Iterations 3
smoothSolver:  Solving for Uz, Initial residual = 0.0008820506, Final residual = 3.1160644e-05, No Iterations 3
GAMG:  Solving for p, Initial residual = 0.0068124999, Final residual = 5.5992213e-05, No Iterations 3
time step continuity errors : sum local = 4.4093506e-06, global = 5.6812996e-08, cumulative = 0.00017867612
ExecutionTime = 22.161121 s  ClockTime = 23 s

Time = 129s

smoothSolver:  Solving for Ux, Initial residual = 0.00098778911, Final residual = 3.4288888e-05, No Iterations 3
smoothSolver:  Solving for Uy, Initial residual = 0.0045015439, Final residual = 0.00015314944, No Iterations 3
smoothSolver:  Solving for Uz, Initial residual = 0.00087553921, Final residual = 3.0940773e-05, No Iterations 3
GAMG:  Solving for p, Initial residual = 0.0067773047, Final residual = 5.5690362e-05, No Iterations 3
time step continuity errors : sum local = 4.3896925e-06, global = 5.6665084e-08, cumulative = 0.00017873278
ExecutionTime = 22.327073 s  ClockTime = 23 s

Time = 130s

smoothSolver:  Solving for Ux, Initial residual = 0.00098533099, Final residual = 3.4213564e-05, No Iterations 3
smoothSolver:  Solving for Uy, Initial residual = 0.0044519031, Final residual = 0.00015141272, No Iterations 3
smoothSolver:  Solving for Uz, Initial residual = 0.00086910639, Final residual = 3.0723571e-05, No Iterations 3
[...]
GAMG:  Solving for p, Initial residual = 1.4255122e-05, Final residual = 1.1706585e-07, No Iterations 2
time step continuity errors : sum local = 1.0722771e-08, global = -8.8617418e-10, cumulative = 0.00018161429
ExecutionTime = 161.94557 s  ClockTime = 164 s

Time = 1008s

smoothSolver:  Solving for Ux, Initial residual = 2.929906e-06, Final residual = 1.0944709e-07, No Iterations 3
smoothSolver:  Solving for Uy, Initial residual = 1.1532998e-05, Final residual = 4.2171615e-07, No Iterations 3
smoothSolver:  Solving for Uz, Initial residual = 1.15927e-06, Final residual = 4.2641954e-08, No Iterations 3
GAMG:  Solving for p, Initial residual = 1.4104303e-05, Final residual = 1.1577985e-07, No Iterations 2
time step continuity errors : sum local = 1.0604966e-08, global = -8.8313838e-10, cumulative = 0.00018161341
ExecutionTime = 162.10147 s  ClockTime = 164 s

Time = 1009s

smoothSolver:  Solving for Ux, Initial residual = 2.8968719e-06, Final residual = 1.0826591e-07, No Iterations 3
smoothSolver:  Solving for Uy, Initial residual = 1.1447552e-05, Final residual = 4.1873387e-07, No Iterations 3
smoothSolver:  Solving for Uz, Initial residual = 1.1466772e-06, Final residual = 4.21948e-08, No Iterations 3
GAMG:  Solving for p, Initial residual = 1.39544e-05, Final residual = 1.1449344e-07, No Iterations 2
time step continuity errors : sum local = 1.0487124e-08, global = -8.8026576e-10, cumulative = 0.00018161253
ExecutionTime = 162.25737 s  ClockTime = 164 s

Time = 1010s

smoothSolver:  Solving for Ux, Initial residual = 2.8640833e-06, Final residual = 1.0709116e-07, No Iterations 3
smoothSolver:  Solving for Uy, Initial residual = 1.1362715e-05, Final residual = 4.1577278e-07, No Iterations 3
smoothSolver:  Solving for Uz, Initial residual = 1.1341896e-06, Final residual = 4.175127e-08, No Iterations 3
GAMG:  Solving for p, Initial residual = 1.3805511e-05, Final residual = 1.1320933e-07, No Iterations 2
time step continuity errors : sum local = 1.0369494e-08, global = -8.775533e-10, cumulative = 0.00018161165
ExecutionTime = 162.41342 s  ClockTime = 164 s

Time = 1011s

smoothSolver:  Solving for Ux, Initial residual = 2.8315057e-06, Final residual = 1.0592131e-07, No Iterations 3
smoothSolver:  Solving for Uy, Initial residual = 1.1278541e-05, Final residual = 4.1286496e-07, No Iterations 3
smoothSolver:  Solving for Uz, Initial residual = 1.1218134e-06, Final residual = 4.1311501e-08, No Iterations 3
GAMG:  Solving for p, Initial residual = 1.3658164e-05, Final residual = 1.1192821e-07, No Iterations 2
time step continuity errors : sum local = 1.0252136e-08, global = -8.7498818e-10, cumulative = 0.00018161077
ExecutionTime = 162.56875 s  ClockTime = 165 s

Time = 1012s

smoothSolver:  Solving for Ux, Initial residual = 2.7991726e-06, Final residual = 1.0475547e-07, No Iterations 3
smoothSolver:  Solving for Uy, Initial residual = 1.1194916e-05, Final residual = 4.1001514e-07, No Iterations 3
smoothSolver:  Solving for Uz, Initial residual = 1.1095607e-06, Final residual = 4.0876143e-08, No Iterations 3
GAMG:  Solving for p, Initial residual = 1.3512043e-05, Final residual = 1.1065625e-07, No Iterations 2
time step continuity errors : sum local = 1.0135619e-08, global = -8.725482e-10, cumulative = 0.0001816099
ExecutionTime = 162.72428 s  ClockTime = 165 s

Time = 1013s

smoothSolver:  Solving for Ux, Initial residual = 2.7670737e-06, Final residual = 1.0359486e-07, No Iterations 3
smoothSolver:  Solving for Uy, Initial residual = 1.1111735e-05, Final residual = 4.0721047e-07, No Iterations 3
smoothSolver:  Solving for Uz, Initial residual = 1.0974187e-06, Final residual = 4.0443787e-08, No Iterations 3
GAMG:  Solving for p, Initial residual = 1.3367328e-05, Final residual = 1.0939836e-07, No Iterations 2
time step continuity errors : sum local = 1.0020391e-08, global = -8.702103e-10, cumulative = 0.00018160903
ExecutionTime = 162.88092 s  ClockTime = 165 s

Time = 1014s

smoothSolver:  Solving for Ux, Initial residual = 2.7352157e-06, Final residual = 1.0244026e-07, No Iterations 3
smoothSolver:  Solving for Uy, Initial residual = 1.1028709e-05, Final residual = 4.0444325e-07, No Iterations 3
smoothSolver:  Solving for Uz, Initial residual = 1.0853788e-06, Final residual = 4.0014753e-08, No Iterations 3
GAMG:  Solving for p, Initial residual = 1.3223796e-05, Final residual = 1.08152e-07, No Iterations 2
time step continuity errors : sum local = 9.9062188e-09, global = -8.6795655e-10, cumulative = 0.00018160816
ExecutionTime = 163.03511 s  ClockTime = 165 s

Time = 1015s

smoothSolver:  Solving for Ux, Initial residual = 2.7035836e-06, Final residual = 1.0129213e-07, No Iterations 3
smoothSolver:  Solving for Uy, Initial residual = 1.0946155e-05, Final residual = 4.0173112e-07, No Iterations 3
smoothSolver:  Solving for Uz, Initial residual = 1.0734396e-06, Final residual = 3.9588715e-08, No Iterations 3
GAMG:  Solving for p, Initial residual = 1.308113e-05, Final residual = 1.0692193e-07, No Iterations 2
time step continuity errors : sum local = 9.7935386e-09, global = -8.6579951e-10, cumulative = 0.0001816073
ExecutionTime = 163.191 s  ClockTime = 165 s

Time = 1016s

smoothSolver:  Solving for Ux, Initial residual = 2.6721439e-06, Final residual = 1.001486e-07, No Iterations 3
smoothSolver:  Solving for Uy, Initial residual = 1.0864703e-05, Final residual = 3.9905655e-07, No Iterations 3
smoothSolver:  Solving for Uz, Initial residual = 1.0616111e-06, Final residual = 3.9165568e-08, No Iterations 3
GAMG:  Solving for p, Initial residual = 1.2939384e-05, Final residual = 1.0571354e-07, No Iterations 2
time step continuity errors : sum local = 9.6828451e-09, global = -8.6369622e-10, cumulative = 0.00018160643
ExecutionTime = 163.34657 s  ClockTime = 165 s

Time = 1017s

smoothSolver:  Solving for Ux, Initial residual = 2.6408897e-06, Final residual = 9.901238e-08, No Iterations 3
smoothSolver:  Solving for Uy, Initial residual = 1.0783588e-05, Final residual = 3.9641712e-07, No Iterations 3
smoothSolver:  Solving for Uz, Initial residual = 1.0498767e-06, Final residual = 3.8746037e-08, No Iterations 3
GAMG:  Solving for p, Initial residual = 1.2798771e-05, Final residual = 1.0452542e-07, No Iterations 2
time step continuity errors : sum local = 9.5740086e-09, global = -8.616694e-10, cumulative = 0.00018160557
ExecutionTime = 163.50092 s  ClockTime = 166 s

Time = 1018s

smoothSolver:  Solving for Ux, Initial residual = 2.609825e-06, Final residual = 9.7881643e-08, No Iterations 3
smoothSolver:  Solving for Uy, Initial residual = 1.0703125e-05, Final residual = 3.9379103e-07, No Iterations 3
smoothSolver:  Solving for Uz, Initial residual = 1.0382297e-06, Final residual = 3.8330546e-08, No Iterations 3
GAMG:  Solving for p, Initial residual = 1.2659268e-05, Final residual = 1.0335827e-07, No Iterations 2
time step continuity errors : sum local = 9.4670922e-09, global = -8.5972409e-10, cumulative = 0.00018160471
ExecutionTime = 163.656 s  ClockTime = 166 s

Time = 1019s

smoothSolver:  Solving for Ux, Initial residual = 2.578957e-06, Final residual = 9.6755123e-08, No Iterations 3
smoothSolver:  Solving for Uy, Initial residual = 1.0623133e-05, Final residual = 3.9120155e-07, No Iterations 3
smoothSolver:  Solving for Uz, Initial residual = 1.0266745e-06, Final residual = 3.7918476e-08, No Iterations 3
GAMG:  Solving for p, Initial residual = 1.2520866e-05, Final residual = 1.0220867e-07, No Iterations 2
time step continuity errors : sum local = 9.361785e-09, global = -8.5783744e-10, cumulative = 0.00018160385
ExecutionTime = 163.80886 s  ClockTime = 166 s

Time = 1020s

smoothSolver:  Solving for Ux, Initial residual = 2.5483284e-06, Final residual = 9.5635692e-08, No Iterations 3
smoothSolver:  Solving for Uy, Initial residual = 1.0543509e-05, Final residual = 3.8862818e-07, No Iterations 3
smoothSolver:  Solving for Uz, Initial residual = 1.0152096e-06, Final residual = 3.7510356e-08, No Iterations 3
GAMG:  Solving for p, Initial residual = 1.2383622e-05, Final residual = 1.0106761e-07, No Iterations 2
time step continuity errors : sum local = 9.2572587e-09, global = -8.560002e-10, cumulative = 0.000181603
ExecutionTime = 163.96454 s  ClockTime = 166 s

Time = 1021s

smoothSolver:  Solving for Ux, Initial residual = 2.5179243e-06, Final residual = 9.4522075e-08, No Iterations 3
smoothSolver:  Solving for Uy, Initial residual = 1.0464203e-05, Final residual = 3.8605889e-07, No Iterations 3
smoothSolver:  Solving for Uz, Initial residual = 1.0038429e-06, Final residual = 3.7105411e-08, No Iterations 3
GAMG:  Solving for p, Initial residual = 1.224755e-05, Final residual = 9.9936092e-08, No Iterations 2
time step continuity errors : sum local = 9.1536079e-09, global = -8.5419413e-10, cumulative = 0.00018160214
ExecutionTime = 164.12192 s  ClockTime = 166 s

Time = 1022s

smoothSolver:  Solving for Ux, Initial residual = 2.4877349e-06, Final residual = 9.341508e-08, No Iterations 3
smoothSolver:  Solving for Uy, Initial residual = 1.0385141e-05, Final residual = 3.835023e-07, No Iterations 3
smoothSolver:  Solving for Uz, Initial residual = 9.9257844e-07, Final residual = 3.6704176e-08, No Iterations 3
GAMG:  Solving for p, Initial residual = 1.2112526e-05, Final residual = 9.8810426e-08, No Iterations 2
time step continuity errors : sum local = 9.050493e-09, global = -8.5241397e-10, cumulative = 0.00018160129
ExecutionTime = 164.27679 s  ClockTime = 166 s

Time = 1023s

smoothSolver:  Solving for Ux, Initial residual = 2.4577652e-06, Final residual = 9.231418e-08, No Iterations 3
smoothSolver:  Solving for Uy, Initial residual = 1.030641e-05, Final residual = 3.809512e-07, No Iterations 3
smoothSolver:  Solving for Uz, Initial residual = 9.8141545e-07, Final residual = 3.6307334e-08, No Iterations 3
GAMG:  Solving for p, Initial residual = 1.1978537e-05, Final residual = 9.7696791e-08, No Iterations 2
time step continuity errors : sum local = 8.9484802e-09, global = -8.5065893e-10, cumulative = 0.00018160044
ExecutionTime = 164.4319 s  ClockTime = 167 s

Time = 1024s

smoothSolver:  Solving for Ux, Initial residual = 2.4280027e-06, Final residual = 9.1219976e-08, No Iterations 3
smoothSolver:  Solving for Uy, Initial residual = 1.022803e-05, Final residual = 3.7842284e-07, No Iterations 3
smoothSolver:  Solving for Uz, Initial residual = 9.7034412e-07, Final residual = 3.5913911e-08, No Iterations 3
GAMG:  Solving for p, Initial residual = 1.1845674e-05, Final residual = 9.6593866e-08, No Iterations 2
time step continuity errors : sum local = 8.8474487e-09, global = -8.4894323e-10, cumulative = 0.00018159959
ExecutionTime = 164.58849 s  ClockTime = 167 s

Time = 1025s

smoothSolver:  Solving for Ux, Initial residual = 2.3984526e-06, Final residual = 9.0131233e-08, No Iterations 3
smoothSolver:  Solving for Uy, Initial residual = 1.0149341e-05, Final residual = 3.7589384e-07, No Iterations 3
smoothSolver:  Solving for Uz, Initial residual = 9.5938065e-07, Final residual = 3.5524566e-08, No Iterations 3
GAMG:  Solving for p, Initial residual = 1.1713966e-05, Final residual = 9.5507481e-08, No Iterations 2
time step continuity errors : sum local = 8.7479325e-09, global = -8.4722583e-10, cumulative = 0.00018159875
ExecutionTime = 164.74262 s  ClockTime = 167 s

Time = 1026s

smoothSolver:  Solving for Ux, Initial residual = 2.3690977e-06, Final residual = 8.9047951e-08, No Iterations 3
smoothSolver:  Solving for Uy, Initial residual = 1.0070576e-05, Final residual = 3.73372e-07, No Iterations 3
smoothSolver:  Solving for Uz, Initial residual = 9.485217e-07, Final residual = 3.5138675e-08, No Iterations 3
GAMG:  Solving for p, Initial residual = 1.1583417e-05, Final residual = 9.4436962e-08, No Iterations 2
time step continuity errors : sum local = 8.6498697e-09, global = -8.4549514e-10, cumulative = 0.0001815979
ExecutionTime = 164.89726 s  ClockTime = 167 s

Time = 1027s

smoothSolver:  Solving for Ux, Initial residual = 2.339931e-06, Final residual = 8.7971592e-08, No Iterations 3
smoothSolver:  Solving for Uy, Initial residual = 9.9921056e-06, Final residual = 3.7084419e-07, No Iterations 3
smoothSolver:  Solving for Uz, Initial residual = 9.3776277e-07, Final residual = 3.475612e-08, No Iterations 3
GAMG:  Solving for p, Initial residual = 1.1453926e-05, Final residual = 9.3380449e-08, No Iterations 2
time step continuity errors : sum local = 8.55309e-09, global = -8.437158e-10, cumulative = 0.00018159706
ExecutionTime = 165.05186 s  ClockTime = 167 s

Time = 1028s

smoothSolver:  Solving for Ux, Initial residual = 2.3109509e-06, Final residual = 8.690067e-08, No Iterations 3
smoothSolver:  Solving for Uy, Initial residual = 9.9139845e-06, Final residual = 3.6830358e-07, No Iterations 3
smoothSolver:  Solving for Uz, Initial residual = 9.2708996e-07, Final residual = 3.4376251e-08, No Iterations 3
GAMG:  Solving for p, Initial residual = 1.1325381e-05, Final residual = 9.2334246e-08, No Iterations 2
time step continuity errors : sum local = 8.4572549e-09, global = -8.4184948e-10, cumulative = 0.00018159621
ExecutionTime = 165.2062 s  ClockTime = 167 s

Time = 1029s

smoothSolver:  Solving for Ux, Initial residual = 2.2821993e-06, Final residual = 8.5837237e-08, No Iterations 3
smoothSolver:  Solving for Uy, Initial residual = 9.8362164e-06, Final residual = 3.657775e-07, No Iterations 3
smoothSolver:  Solving for Uz, Initial residual = 9.1650584e-07, Final residual = 3.3999516e-08, No Iterations 3
GAMG:  Solving for p, Initial residual = 1.1197918e-05, Final residual = 9.1297758e-08, No Iterations 2
time step continuity errors : sum local = 8.3623098e-09, global = -8.3986342e-10, cumulative = 0.00018159537
ExecutionTime = 165.36236 s  ClockTime = 167 s

Time = 1030s

smoothSolver:  Solving for Ux, Initial residual = 2.2536679e-06, Final residual = 8.4779616e-08, No Iterations 3
smoothSolver:  Solving for Uy, Initial residual = 9.7587446e-06, Final residual = 3.6325686e-07, No Iterations 3
smoothSolver:  Solving for Uz, Initial residual = 9.0601363e-07, Final residual = 3.3626124e-08, No Iterations 3
GAMG:  Solving for p, Initial residual = 1.1071606e-05, Final residual = 9.0273577e-08, No Iterations 2
time step continuity errors : sum local = 8.2684923e-09, global = -8.3774146e-10, cumulative = 0.00018159454
ExecutionTime = 165.51684 s  ClockTime = 168 s

Time = 1031s

smoothSolver:  Solving for Ux, Initial residual = 2.2253609e-06, Final residual = 8.3728647e-08, No Iterations 3
smoothSolver:  Solving for Uy, Initial residual = 9.6814011e-06, Final residual = 3.607468e-07, No Iterations 3
smoothSolver:  Solving for Uz, Initial residual = 8.9561083e-07, Final residual = 3.3255555e-08, No Iterations 3
GAMG:  Solving for p, Initial residual = 1.0946295e-05, Final residual = 8.9261443e-08, No Iterations 2
time step continuity errors : sum local = 8.1757783e-09, global = -8.3547346e-10, cumulative = 0.0001815937
ExecutionTime = 165.67059 s  ClockTime = 168 s

Time = 1032s

smoothSolver:  Solving for Ux, Initial residual = 2.1972651e-06, Final residual = 8.2683959e-08, No Iterations 3
smoothSolver:  Solving for Uy, Initial residual = 9.6041847e-06, Final residual = 3.5824599e-07, No Iterations 3
smoothSolver:  Solving for Uz, Initial residual = 8.8530109e-07, Final residual = 3.2888052e-08, No Iterations 3
GAMG:  Solving for p, Initial residual = 1.0821951e-05, Final residual = 8.8256773e-08, No Iterations 2
time step continuity errors : sum local = 8.0837484e-09, global = -8.3305676e-10, cumulative = 0.00018159287
ExecutionTime = 165.82734 s  ClockTime = 168 s

Time = 1033s

smoothSolver:  Solving for Ux, Initial residual = 2.1693651e-06, Final residual = 8.1646615e-08, No Iterations 3
smoothSolver:  Solving for Uy, Initial residual = 9.5271414e-06, Final residual = 3.5575535e-07, No Iterations 3
smoothSolver:  Solving for Uz, Initial residual = 8.7508308e-07, Final residual = 3.2522857e-08, No Iterations 3
GAMG:  Solving for p, Initial residual = 1.0698474e-05, Final residual = 8.7265686e-08, No Iterations 2
time step continuity errors : sum local = 7.9929627e-09, global = -8.304926e-10, cumulative = 0.00018159204
ExecutionTime = 165.98325 s  ClockTime = 168 s

Time = 1034s

smoothSolver:  Solving for Ux, Initial residual = 2.1416962e-06, Final residual = 8.0617409e-08, No Iterations 3
smoothSolver:  Solving for Uy, Initial residual = 9.4502373e-06, Final residual = 3.5323876e-07, No Iterations 3
smoothSolver:  Solving for Uz, Initial residual = 8.6495372e-07, Final residual = 3.2160276e-08, No Iterations 3
GAMG:  Solving for p, Initial residual = 1.0575959e-05, Final residual = 8.6296138e-08, No Iterations 2
time step continuity errors : sum local = 7.90415e-09, global = -8.2767346e-10, cumulative = 0.00018159121
ExecutionTime = 166.13897 s  ClockTime = 168 s

Time = 1035s

smoothSolver:  Solving for Ux, Initial residual = 2.1142494e-06, Final residual = 7.9596962e-08, No Iterations 3
smoothSolver:  Solving for Uy, Initial residual = 9.3733251e-06, Final residual = 3.5072747e-07, No Iterations 3
smoothSolver:  Solving for Uz, Initial residual = 8.5490275e-07, Final residual = 3.180045e-08, No Iterations 3
GAMG:  Solving for p, Initial residual = 1.0455025e-05, Final residual = 8.5333864e-08, No Iterations 2
time step continuity errors : sum local = 7.8160039e-09, global = -8.2478712e-10, cumulative = 0.00018159039
ExecutionTime = 166.29472 s  ClockTime = 168 s

Time = 1036s

smoothSolver:  Solving for Ux, Initial residual = 2.0870491e-06, Final residual = 7.8583545e-08, No Iterations 3
smoothSolver:  Solving for Uy, Initial residual = 9.296175e-06, Final residual = 3.4819713e-07, No Iterations 3
smoothSolver:  Solving for Uz, Initial residual = 8.4493955e-07, Final residual = 3.1443427e-08, No Iterations 3
GAMG:  Solving for p, Initial residual = 1.0335284e-05, Final residual = 8.4385873e-08, No Iterations 2
time step continuity errors : sum local = 7.7291662e-09, global = -8.2171011e-10, cumulative = 0.00018158956
ExecutionTime = 166.45033 s  ClockTime = 169 s

Time = 1037s

smoothSolver:  Solving for Ux, Initial residual = 2.0601051e-06, Final residual = 7.7576678e-08, No Iterations 3
smoothSolver:  Solving for Uy, Initial residual = 9.2185034e-06, Final residual = 3.456448e-07, No Iterations 3
smoothSolver:  Solving for Uz, Initial residual = 8.3505122e-07, Final residual = 3.1089074e-08, No Iterations 3
GAMG:  Solving for p, Initial residual = 1.0216527e-05, Final residual = 8.3448409e-08, No Iterations 2
time step continuity errors : sum local = 7.6432929e-09, global = -8.1840607e-10, cumulative = 0.00018158875
ExecutionTime = 166.60565 s  ClockTime = 169 s

Time = 1038s

smoothSolver:  Solving for Ux, Initial residual = 2.0333916e-06, Final residual = 7.6577616e-08, No Iterations 3
smoothSolver:  Solving for Uy, Initial residual = 9.1407809e-06, Final residual = 3.4309327e-07, No Iterations 3
smoothSolver:  Solving for Uz, Initial residual = 8.2524458e-07, Final residual = 3.0737505e-08, No Iterations 3
GAMG:  Solving for p, Initial residual = 1.0098801e-05, Final residual = 8.2518605e-08, No Iterations 2
time step continuity errors : sum local = 7.5581214e-09, global = -8.1483428e-10, cumulative = 0.00018158793
ExecutionTime = 166.76069 s  ClockTime = 169 s

Time = 1039s

smoothSolver:  Solving for Ux, Initial residual = 2.0068747e-06, Final residual = 7.5586269e-08, No Iterations 3
smoothSolver:  Solving for Uy, Initial residual = 9.063156e-06, Final residual = 3.4053676e-07, No Iterations 3
smoothSolver:  Solving for Uz, Initial residual = 8.1553097e-07, Final residual = 3.038916e-08, No Iterations 3
GAMG:  Solving for p, Initial residual = 9.9820506e-06, Final residual = 8.1597351e-08, No Iterations 2
time step continuity errors : sum local = 7.4737332e-09, global = -8.1096584e-10, cumulative = 0.00018158712
ExecutionTime = 166.91464 s  ClockTime = 169 s


SIMPLE solution converged in 1039 iterations

End

Finalising parallel run
