/*---------------------------------------------------------------------------*\
  =========                 |
  \\      /  F ield         | OpenFOAM: The Open Source CFD Toolbox
   \\    /   O peration     | Website:  https://openfoam.org
    \\  /    A nd           | Version:  11
     \\/     M anipulation  |
\*---------------------------------------------------------------------------*/
Build  : 11-e1fc8c682ae6
Exec   : foamRun -solver incompressibleFluid -parallel
Date   : Feb 09 2026
Time   : 13:49:02
Host   : "ip-172-31-18-192"
PID    : 136572
I/O    : uncollated
Case   : /home/ubuntu/cases/bifurcation_angle60_500_ascii/Re100
nProcs : 16
Slaves : 
15
(
"ip-172-31-18-192.136573"
"ip-172-31-18-192.136574"
"ip-172-31-18-192.136575"
"ip-172-31-18-192.136576"
"ip-172-31-18-192.136577"
"ip-172-31-18-192.136578"
"ip-172-31-18-192.136579"
"ip-172-31-18-192.136580"
"ip-172-31-18-192.136581"
"ip-172-31-18-192.136582"
"ip-172-31-18-192.136583"
"ip-172-31-18-192.136584"
"ip-172-31-18-192.136585"
"ip-172-31-18-192.136586"
"ip-172-31-18-192.136587"
)

Pstream initialised with:
    floatTransfer      : false
    nProcsSimpleSum    : 0
    commsType          : nonBlocking
    polling iterations : 0
sigFpe : Enabling floating point exception trapping (FOAM_SIGFPE).
fileModificationChecking : Monitoring run-time modified files using timeStampMaster (fileModificationSkew 10)
allowSystemOperations : Allowing user-supplied system call operations

// * * * * * * * * * * * * * * * * * * * * * * * * * * * * * * * * * * * * * //
Create time

Create mesh for time = 0

Selecting solver incompressibleFluid
Selecting viscosity model Newtonian
Selecting turbulence model type laminar
Selecting laminar stress model Stokes
No MRF models present


SIMPLE: Convergence criteria found
        p: tolerance 1e-05
        U: tolerance 1e-05


SIMPLE: Operating solver in steady-state mode with 1 outer corrector
SIMPLE: Operating solver in SIMPLE mode



Starting time loop

wallShearStress wallShearStress:
    processing wall patches: 
        wall-fluid_domain

Time = 1s

smoothSolver:  Solving for Ux, Initial residual = 1, Final residual = 0.043921145, No Iterations 1
smoothSolver:  Solving for Uy, Initial residual = 1, Final residual = 0.053256585, No Iterations 1
smoothSolver:  Solving for Uz, Initial residual = 1, Final residual = 0.036476305, No Iterations 1
GAMG:  Solving for p, Initial residual = 1, Final residual = 0.0080079135, No Iterations 10
time step continuity errors : sum local = 8.2534491e-05, global = -2.4130655e-06, cumulative = -2.4130655e-06
ExecutionTime = 0.518958 s  ClockTime = 0 s

Time = 2s

smoothSolver:  Solving for Ux, Initial residual = 0.26212396, Final residual = 0.016629934, No Iterations 2
smoothSolver:  Solving for Uy, Initial residual = 0.26924127, Final residual = 0.011137839, No Iterations 2
smoothSolver:  Solving for Uz, Initial residual = 0.39368224, Final residual = 0.012875713, No Iterations 3
GAMG:  Solving for p, Initial residual = 0.20228789, Final residual = 0.0011782672, No Iterations 6
time step continuity errors : sum local = 0.0018664994, global = -4.8977965e-05, cumulative = -5.139103e-05
ExecutionTime = 0.665548 s  ClockTime = 0 s

Time = 3s

smoothSolver:  Solving for Ux, Initial residual = 0.19531321, Final residual = 0.018133458, No Iterations 2
smoothSolver:  Solving for Uy, Initial residual = 0.11962246, Final residual = 0.0067651386, No Iterations 2
smoothSolver:  Solving for Uz, Initial residual = 0.62743074, Final residual = 0.022016771, No Iterations 3
GAMG:  Solving for p, Initial residual = 0.11787495, Final residual = 0.00109881, No Iterations 3
time step continuity errors : sum local = 0.0052569177, global = 0.00017814378, cumulative = 0.00012675275
ExecutionTime = 0.788098 s  ClockTime = 0 s

Time = 4s

smoothSolver:  Solving for Ux, Initial residual = 0.12381208, Final residual = 0.012211166, No Iterations 2
smoothSolver:  Solving for Uy, Initial residual = 0.064731659, Final residual = 0.0036989043, No Iterations 2
smoothSolver:  Solving for Uz, Initial residual = 0.45422246, Final residual = 0.015971918, No Iterations 3
GAMG:  Solving for p, Initial residual = 0.07910939, Final residual = 0.00032604347, No Iterations 6
time step continuity errors : sum local = 0.0014458886, global = 2.4794211e-05, cumulative = 0.00015154696
ExecutionTime = 0.930877 s  ClockTime = 1 s

Time = 5s

smoothSolver:  Solving for Ux, Initial residual = 0.096156925, Final residual = 0.0078654259, No Iterations 2
smoothSolver:  Solving for Uy, Initial residual = 0.21016902, Final residual = 0.013375638, No Iterations 2
smoothSolver:  Solving for Uz, Initial residual = 0.16354897, Final residual = 0.0057773124, No Iterations 3
GAMG:  Solving for p, Initial residual = 0.098358937, Final residual = 0.00073353186, No Iterations 6
time step continuity errors : sum local = 0.0014519879, global = 4.1640683e-05, cumulative = 0.00019318764
ExecutionTime = 1.074844 s  ClockTime = 1 s

Time = 6s

smoothSolver:  Solving for Ux, Initial residual = 0.12950096, Final residual = 0.0093598749, No Iterations 2
smoothSolver:  Solving for Uy, Initial residual = 0.39658855, Final residual = 0.024476187, No Iterations 2
smoothSolver:  Solving for Uz, Initial residual = 0.12871346, Final residual = 0.0044584867, No Iterations 3
GAMG:  Solving for p, Initial residual = 0.34360553, Final residual = 0.0029496856, No Iterations 4
time step continuity errors : sum local = 0.0042631795, global = 8.8360742e-05, cumulative = 0.00028154838
ExecutionTime = 1.205106 s  ClockTime = 1 s

Time = 7s

smoothSolver:  Solving for Ux, Initial residual = 0.14428816, Final residual = 0.01214582, No Iterations 2
smoothSolver:  Solving for Uy, Initial residual = 0.22800107, Final residual = 0.013419497, No Iterations 2
smoothSolver:  Solving for Uz, Initial residual = 0.3150921, Final residual = 0.011014014, No Iterations 3
GAMG:  Solving for p, Initial residual = 0.21470965, Final residual = 0.0010357952, No Iterations 4
time step continuity errors : sum local = 0.0025287187, global = -2.0278806e-05, cumulative = 0.00026126958
ExecutionTime = 1.334248 s  ClockTime = 1 s

Time = 8s

smoothSolver:  Solving for Ux, Initial residual = 0.10922418, Final residual = 0.010149794, No Iterations 2
smoothSolver:  Solving for Uy, Initial residual = 0.12717475, Final residual = 0.0085262944, No Iterations 2
smoothSolver:  Solving for Uz, Initial residual = 0.29576173, Final residual = 0.010338242, No Iterations 3
GAMG:  Solving for p, Initial residual = 0.16644701, Final residual = 0.00096933953, No Iterations 5
time step continuity errors : sum local = 0.0018729794, global = -2.0005835e-05, cumulative = 0.00024126374
ExecutionTime = 1.470826 s  ClockTime = 1 s

Time = 9s

smoothSolver:  Solving for Ux, Initial residual = 0.090812291, Final residual = 0.0073213175, No Iterations 2
smoothSolver:  Solving for Uy, Initial residual = 0.28109092, Final residual = 0.020977081, No Iterations 2
smoothSolver:  Solving for Uz, Initial residual = 0.081578803, Final residual = 0.0027338379, No Iterations 3
GAMG:  Solving for p, Initial residual = 0.20916617, Final residual = 0.0010272105, No Iterations 6
time step continuity errors : sum local = 0.00064525449, global = -1.3571689e-05, cumulative = 0.00022769205
ExecutionTime = 1.614888 s  ClockTime = 1 s

Time = 10s

smoothSolver:  Solving for Ux, Initial residual = 0.10197963, Final residual = 0.0079923642, No Iterations 2
smoothSolver:  Solving for Uy, Initial residual = 0.37820532, Final residual = 0.025591211, No Iterations 2
smoothSolver:  Solving for Uz, Initial residual = 0.10971195, Final residual = 0.0038648217, No Iterations 3
GAMG:  Solving for p, Initial residual = 0.24086071, Final residual = 0.0018830643, No Iterations 4
time step continuity errors : sum local = 0.0016431872, global = -2.2340888e-05, cumulative = 0.00020535117
ExecutionTime = 1.744026 s  ClockTime = 1 s

Time = 11s

smoothSolver:  Solving for Ux, Initial residual = 0.081322708, Final residual = 0.0070209498, No Iterations 2
smoothSolver:  Solving for Uy, Initial residual = 0.2061304, Final residual = 0.012719204, No Iterations 2
smoothSolver:  Solving for Uz, Initial residual = 0.14921101, Final residual = 0.0052548488, No Iterations 3
GAMG:  Solving for p, Initial residual = 0.17721442, Final residual = 0.0013264827, No Iterations 4
time step continuity errors : sum local = 0.0015798889, global = 1.8250739e-05, cumulative = 0.00022360191
ExecutionTime = 1.872529 s  ClockTime = 2 s

Time = 12s

smoothSolver:  Solving for Ux, Initial residual = 0.051434582, Final residual = 0.0049547265, No Iterations 2
smoothSolver:  Solving for Uy, Initial residual = 0.14763177, Final residual = 0.01169343, No Iterations 2
smoothSolver:  Solving for Uz, Initial residual = 0.095290403, Final residual = 0.0033652358, No Iterations 3
GAMG:  Solving for p, Initial residual = 0.13675069, Final residual = 0.0010838074, No Iterations 5
time step continuity errors : sum local = 0.00091264611, global = 5.9249072e-06, cumulative = 0.00022952681
ExecutionTime = 2.008804 s  ClockTime = 2 s

Time = 13s

smoothSolver:  Solving for Ux, Initial residual = 0.04384309, Final residual = 0.0036076812, No Iterations 2
smoothSolver:  Solving for Uy, Initial residual = 0.31685139, Final residual = 0.025392387, No Iterations 2
smoothSolver:  Solving for Uz, Initial residual = 0.018909052, Final residual = 0.001765799, No Iterations 2
GAMG:  Solving for p, Initial residual = 0.2996411, Final residual = 0.0029437789, No Iterations 5
time step continuity errors : sum local = 0.00067697455, global = 2.3204893e-06, cumulative = 0.0002318473
ExecutionTime = 2.141844 s  ClockTime = 2 s

Time = 14s

smoothSolver:  Solving for Ux, Initial residual = 0.046931298, Final residual = 0.003831176, No Iterations 2
smoothSolver:  Solving for Uy, Initial residual = 0.30168067, Final residual = 0.021980141, No Iterations 2
smoothSolver:  Solving for Uz, Initial residual = 0.054058247, Final residual = 0.0018671324, No Iterations 3
GAMG:  Solving for p, Initial residual = 0.24311417, Final residual = 0.0014615365, No Iterations 4
time step continuity errors : sum local = 0.00065776471, global = 5.9188647e-06, cumulative = 0.00023776617
ExecutionTime = 2.271367 s  ClockTime = 2 s

Time = 15s

smoothSolver:  Solving for Ux, Initial residual = 0.037944647, Final residual = 0.0033250822, No Iterations 2
smoothSolver:  Solving for Uy, Initial residual = 0.15808212, Final residual = 0.010534345, No Iterations 2
smoothSolver:  Solving for Uz, Initial residual = 0.06778027, Final residual = 0.0023490089, No Iterations 3
GAMG:  Solving for p, Initial residual = 0.18403333, Final residual = 0.0016642394, No Iterations 4
time step continuity errors : sum local = 0.0008658654, global = -1.1411944e-05, cumulative = 0.00022635422
ExecutionTime = 2.400282 s  ClockTime = 2 s

Time = 16s

smoothSolver:  Solving for Ux, Initial residual = 0.027036106, Final residual = 0.0025709837, No Iterations 2
smoothSolver:  Solving for Uy, Initial residual = 0.14528903, Final residual = 0.012334364, No Iterations 2
smoothSolver:  Solving for Uz, Initial residual = 0.038663703, Final residual = 0.0013290396, No Iterations 3
GAMG:  Solving for p, Initial residual = 0.14972208, Final residual = 0.0013515776, No Iterations 5
time step continuity errors : sum local = 0.00042491998, global = -2.3935922e-06, cumulative = 0.00022396063
ExecutionTime = 2.536012 s  ClockTime = 2 s

Time = 17s

smoothSolver:  Solving for Ux, Initial residual = 0.025099854, Final residual = 0.0020638613, No Iterations 2
smoothSolver:  Solving for Uy, Initial residual = 0.25251774, Final residual = 0.020590536, No Iterations 2
smoothSolver:  Solving for Uz, Initial residual = 0.010391239, Final residual = 0.0010016419, No Iterations 2
GAMG:  Solving for p, Initial residual = 0.30726262, Final residual = 0.0022800453, No Iterations 5
time step continuity errors : sum local = 0.00027580555, global = -1.0214368e-06, cumulative = 0.00022293919
ExecutionTime = 2.670135 s  ClockTime = 2 s

Time = 18s

smoothSolver:  Solving for Ux, Initial residual = 0.024489309, Final residual = 0.0021025176, No Iterations 2
smoothSolver:  Solving for Uy, Initial residual = 0.20239739, Final residual = 0.01510539, No Iterations 2
smoothSolver:  Solving for Uz, Initial residual = 0.030058495, Final residual = 0.0010730935, No Iterations 3
GAMG:  Solving for p, Initial residual = 0.17844862, Final residual = 0.00096522512, No Iterations 4
time step continuity errors : sum local = 0.00028193698, global = 1.2738894e-06, cumulative = 0.00022421308
ExecutionTime = 2.79928 s  ClockTime = 2 s

Time = 19s

smoothSolver:  Solving for Ux, Initial residual = 0.017624635, Final residual = 0.0016397411, No Iterations 2
smoothSolver:  Solving for Uy, Initial residual = 0.10925872, Final residual = 0.0080160206, No Iterations 2
smoothSolver:  Solving for Uz, Initial residual = 0.029816934, Final residual = 0.0010642843, No Iterations 3
GAMG:  Solving for p, Initial residual = 0.13817482, Final residual = 0.00063648713, No Iterations 5
time step continuity errors : sum local = 0.00018659095, global = 1.8240916e-06, cumulative = 0.00022603718
ExecutionTime = 2.938357 s  ClockTime = 3 s

Time = 20s

smoothSolver:  Solving for Ux, Initial residual = 0.013667043, Final residual = 0.001329973, No Iterations 2
smoothSolver:  Solving for Uy, Initial residual = 0.12176198, Final residual = 0.010852112, No Iterations 2
smoothSolver:  Solving for Uz, Initial residual = 0.014270248, Final residual = 0.00050536592, No Iterations 3
GAMG:  Solving for p, Initial residual = 0.10081701, Final residual = 0.00041416094, No Iterations 6
time step continuity errors : sum local = 7.5532351e-05, global = 1.8994958e-06, cumulative = 0.00022793667
ExecutionTime = 3.081321 s  ClockTime = 3 s

Time = 21s

smoothSolver:  Solving for Ux, Initial residual = 0.012904117, Final residual = 0.0011044317, No Iterations 2
smoothSolver:  Solving for Uy, Initial residual = 0.16008444, Final residual = 0.013442449, No Iterations 2
smoothSolver:  Solving for Uz, Initial residual = 0.0065640405, Final residual = 0.00062021451, No Iterations 2
GAMG:  Solving for p, Initial residual = 0.28470856, Final residual = 0.0015201203, No Iterations 5
time step continuity errors : sum local = 0.00010883402, global = 2.1420506e-07, cumulative = 0.00022815088
ExecutionTime = 3.216735 s  ClockTime = 3 s

Time = 22s

smoothSolver:  Solving for Ux, Initial residual = 0.010936497, Final residual = 0.00092304827, No Iterations 2
smoothSolver:  Solving for Uy, Initial residual = 0.11678228, Final residual = 0.0090724511, No Iterations 2
smoothSolver:  Solving for Uz, Initial residual = 0.0135384, Final residual = 0.00045540792, No Iterations 3
GAMG:  Solving for p, Initial residual = 0.18620959, Final residual = 0.0012680591, No Iterations 4
time step continuity errors : sum local = 0.0001699147, global = -2.5225835e-06, cumulative = 0.00022562829
ExecutionTime = 3.346594 s  ClockTime = 3 s

Time = 23s

smoothSolver:  Solving for Ux, Initial residual = 0.0075723326, Final residual = 0.00068485498, No Iterations 2
smoothSolver:  Solving for Uy, Initial residual = 0.065428186, Final residual = 0.005208973, No Iterations 2
smoothSolver:  Solving for Uz, Initial residual = 0.011699121, Final residual = 0.00039192952, No Iterations 3
GAMG:  Solving for p, Initial residual = 0.14503687, Final residual = 0.00077868329, No Iterations 5
time step continuity errors : sum local = 9.4195623e-05, global = -7.9884072e-07, cumulative = 0.00022482945
ExecutionTime = 3.483463 s  ClockTime = 3 s

Time = 24s

smoothSolver:  Solving for Ux, Initial residual = 0.0068257427, Final residual = 0.00063004693, No Iterations 2
smoothSolver:  Solving for Uy, Initial residual = 0.079860844, Final residual = 0.007181432, No Iterations 2
smoothSolver:  Solving for Uz, Initial residual = 0.0048465807, Final residual = 0.00048041122, No Iterations 2
GAMG:  Solving for p, Initial residual = 0.13186696, Final residual = 0.0013144008, No Iterations 5
time step continuity errors : sum local = 8.2862633e-05, global = -2.70162e-07, cumulative = 0.00022455929
ExecutionTime = 3.61823 s  ClockTime = 3 s

Time = 25s

smoothSolver:  Solving for Ux, Initial residual = 0.007072624, Final residual = 0.00064289124, No Iterations 2
smoothSolver:  Solving for Uy, Initial residual = 0.087789833, Final residual = 0.00751158, No Iterations 2
smoothSolver:  Solving for Uz, Initial residual = 0.0062929866, Final residual = 0.00021652317, No Iterations 3
GAMG:  Solving for p, Initial residual = 0.10187525, Final residual = 0.00098258432, No Iterations 4
time step continuity errors : sum local = 0.00010121781, global = -1.3882947e-06, cumulative = 0.000223171
ExecutionTime = 3.746871 s  ClockTime = 3 s

Time = 26s

smoothSolver:  Solving for Ux, Initial residual = 0.0059447647, Final residual = 0.00055875096, No Iterations 2
smoothSolver:  Solving for Uy, Initial residual = 0.060945816, Final residual = 0.0050832444, No Iterations 2
smoothSolver:  Solving for Uz, Initial residual = 0.0078439748, Final residual = 0.00027993977, No Iterations 3
GAMG:  Solving for p, Initial residual = 0.088957276, Final residual = 0.00074061341, No Iterations 4
time step continuity errors : sum local = 9.2398837e-05, global = 9.7173888e-07, cumulative = 0.00022414273
ExecutionTime = 3.875615 s  ClockTime = 4 s

Time = 27s

smoothSolver:  Solving for Ux, Initial residual = 0.004681367, Final residual = 0.00014836532, No Iterations 3
smoothSolver:  Solving for Uy, Initial residual = 0.041603518, Final residual = 0.0038435278, No Iterations 2
smoothSolver:  Solving for Uz, Initial residual = 0.0066166657, Final residual = 0.00023270306, No Iterations 3
GAMG:  Solving for p, Initial residual = 0.061738677, Final residual = 0.00040118437, No Iterations 5
time step continuity errors : sum local = 4.5810671e-05, global = 3.3316019e-07, cumulative = 0.00022447589
ExecutionTime = 4.012774 s  ClockTime = 4 s

Time = 28s

smoothSolver:  Solving for Ux, Initial residual = 0.0046099034, Final residual = 0.0004567592, No Iterations 2
smoothSolver:  Solving for Uy, Initial residual = 0.049490928, Final residual = 0.0046510098, No Iterations 2
smoothSolver:  Solving for Uz, Initial residual = 0.0046196252, Final residual = 0.00015319139, No Iterations 3
GAMG:  Solving for p, Initial residual = 0.049271304, Final residual = 0.00041876476, No Iterations 5
time step continuity errors : sum local = 3.6187204e-05, global = 8.4770555e-08, cumulative = 0.00022456067
ExecutionTime = 4.149524 s  ClockTime = 4 s

Time = 29s

smoothSolver:  Solving for Ux, Initial residual = 0.0042625563, Final residual = 0.00040394565, No Iterations 2
smoothSolver:  Solving for Uy, Initial residual = 0.04837104, Final residual = 0.0043587557, No Iterations 2
smoothSolver:  Solving for Uz, Initial residual = 0.003683979, Final residual = 0.00011526147, No Iterations 3
GAMG:  Solving for p, Initial residual = 0.091420083, Final residual = 0.0006964117, No Iterations 4
time step continuity errors : sum local = 4.4293262e-05, global = 4.5607793e-07, cumulative = 0.00022501674
ExecutionTime = 4.280575 s  ClockTime = 4 s

Time = 30s

smoothSolver:  Solving for Ux, Initial residual = 0.0034178751, Final residual = 0.0003271254, No Iterations 2
smoothSolver:  Solving for Uy, Initial residual = 0.034401548, Final residual = 0.0031228602, No Iterations 2
smoothSolver:  Solving for Uz, Initial residual = 0.0035680052, Final residual = 0.00011146593, No Iterations 3
GAMG:  Solving for p, Initial residual = 0.093330888, Final residual = 0.00076628775, No Iterations 4
time step continuity errors : sum local = 4.5307655e-05, global = -4.5175853e-07, cumulative = 0.00022456498
ExecutionTime = 4.408873 s  ClockTime = 4 s

Time = 31s

smoothSolver:  Solving for Ux, Initial residual = 0.0030248969, Final residual = 9.362864e-05, No Iterations 3
smoothSolver:  Solving for Uy, Initial residual = 0.028437681, Final residual = 0.00277854, No Iterations 2
smoothSolver:  Solving for Uz, Initial residual = 0.0034386558, Final residual = 0.00010992614, No Iterations 3
GAMG:  Solving for p, Initial residual = 0.055578874, Final residual = 0.00032561688, No Iterations 5
time step continuity errors : sum local = 2.0610092e-05, global = -1.2632391e-07, cumulative = 0.00022443866
ExecutionTime = 4.545954 s  ClockTime = 4 s

Time = 32s

smoothSolver:  Solving for Ux, Initial residual = 0.0031475487, Final residual = 9.8234921e-05, No Iterations 3
smoothSolver:  Solving for Uy, Initial residual = 0.031710105, Final residual = 0.0030788465, No Iterations 2
smoothSolver:  Solving for Uz, Initial residual = 0.0037063633, Final residual = 0.00012310028, No Iterations 3
GAMG:  Solving for p, Initial residual = 0.034250757, Final residual = 0.00018784126, No Iterations 5
time step continuity errors : sum local = 1.4260018e-05, global = -1.9352799e-08, cumulative = 0.00022441931
ExecutionTime = 4.682173 s  ClockTime = 4 s

Time = 33s

smoothSolver:  Solving for Ux, Initial residual = 0.0030397131, Final residual = 9.6020607e-05, No Iterations 3
smoothSolver:  Solving for Uy, Initial residual = 0.029624627, Final residual = 0.0028547772, No Iterations 2
smoothSolver:  Solving for Uz, Initial residual = 0.0040109991, Final residual = 0.00013656093, No Iterations 3
GAMG:  Solving for p, Initial residual = 0.03529945, Final residual = 0.00020858822, No Iterations 4
time step continuity errors : sum local = 1.7777251e-05, global = -8.3210721e-08, cumulative = 0.0002243361
ExecutionTime = 4.811017 s  ClockTime = 5 s

Time = 34s

smoothSolver:  Solving for Ux, Initial residual = 0.0027312474, Final residual = 8.9375735e-05, No Iterations 3
smoothSolver:  Solving for Uy, Initial residual = 0.024103697, Final residual = 0.00075167146, No Iterations 3
smoothSolver:  Solving for Uz, Initial residual = 0.0039681575, Final residual = 0.00013560396, No Iterations 3
GAMG:  Solving for p, Initial residual = 0.030404023, Final residual = 0.00027329138, No Iterations 4
time step continuity errors : sum local = 2.3703941e-05, global = 2.7846502e-07, cumulative = 0.00022461456
ExecutionTime = 4.94159 s  ClockTime = 5 s

Time = 35s

smoothSolver:  Solving for Ux, Initial residual = 0.0025916079, Final residual = 8.5910453e-05, No Iterations 3
smoothSolver:  Solving for Uy, Initial residual = 0.022427647, Final residual = 0.00072418423, No Iterations 3
smoothSolver:  Solving for Uz, Initial residual = 0.0036568977, Final residual = 0.00012376188, No Iterations 3
GAMG:  Solving for p, Initial residual = 0.023283993, Final residual = 0.00012324611, No Iterations 5
time step continuity errors : sum local = 1.0166319e-05, global = 5.6847825e-08, cumulative = 0.00022467141
ExecutionTime = 5.079083 s  ClockTime = 5 s

Time = 36s

smoothSolver:  Solving for Ux, Initial residual = 0.0025430386, Final residual = 8.2943763e-05, No Iterations 3
smoothSolver:  Solving for Uy, Initial residual = 0.022688428, Final residual = 0.00072043604, No Iterations 3
smoothSolver:  Solving for Uz, Initial residual = 0.0033212667, Final residual = 0.00011078477, No Iterations 3
GAMG:  Solving for p, Initial residual = 0.025058476, Final residual = 0.00020809256, No Iterations 4
time step continuity errors : sum local = 1.5919477e-05, global = 2.6566682e-07, cumulative = 0.00022493708
ExecutionTime = 5.209613 s  ClockTime = 5 s

Time = 37s

smoothSolver:  Solving for Ux, Initial residual = 0.002410574, Final residual = 7.8367573e-05, No Iterations 3
smoothSolver:  Solving for Uy, Initial residual = 0.020959539, Final residual = 0.00066700721, No Iterations 3
smoothSolver:  Solving for Uz, Initial residual = 0.0031308614, Final residual = 0.00010370097, No Iterations 3
GAMG:  Solving for p, Initial residual = 0.028280911, Final residual = 0.00013357278, No Iterations 4
time step continuity errors : sum local = 9.7384718e-06, global = 5.8452819e-08, cumulative = 0.00022499553
ExecutionTime = 5.340705 s  ClockTime = 5 s

Time = 38s

smoothSolver:  Solving for Ux, Initial residual = 0.0022788344, Final residual = 7.5058216e-05, No Iterations 3
smoothSolver:  Solving for Uy, Initial residual = 0.019058407, Final residual = 0.00062297916, No Iterations 3
smoothSolver:  Solving for Uz, Initial residual = 0.0030563993, Final residual = 0.00010156177, No Iterations 3
GAMG:  Solving for p, Initial residual = 0.025148964, Final residual = 0.0001517515, No Iterations 4
time step continuity errors : sum local = 1.1051395e-05, global = -1.2543154e-07, cumulative = 0.0002248701
ExecutionTime = 5.472011 s  ClockTime = 5 s

Time = 39s

smoothSolver:  Solving for Ux, Initial residual = 0.0022285056, Final residual = 7.4033032e-05, No Iterations 3
smoothSolver:  Solving for Uy, Initial residual = 0.01875775, Final residual = 0.00061902654, No Iterations 3
smoothSolver:  Solving for Uz, Initial residual = 0.0030442269, Final residual = 0.00010208283, No Iterations 3
GAMG:  Solving for p, Initial residual = 0.020430852, Final residual = 0.00013296962, No Iterations 4
time step continuity errors : sum local = 9.9740966e-06, global = -1.571272e-07, cumulative = 0.00022471297
ExecutionTime = 5.602765 s  ClockTime = 5 s

Time = 40s

smoothSolver:  Solving for Ux, Initial residual = 0.0021898034, Final residual = 7.3090306e-05, No Iterations 3
smoothSolver:  Solving for Uy, Initial residual = 0.018585992, Final residual = 0.00061225311, No Iterations 3
smoothSolver:  Solving for Uz, Initial residual = 0.0030503844, Final residual = 0.00010327311, No Iterations 3
GAMG:  Solving for p, Initial residual = 0.018753835, Final residual = 8.5639003e-05, No Iterations 4
time step continuity errors : sum local = 6.644975e-06, global = -7.5596353e-08, cumulative = 0.00022463737
ExecutionTime = 5.73704 s  ClockTime = 5 s

Time = 41s

smoothSolver:  Solving for Ux, Initial residual = 0.0021205317, Final residual = 7.1293959e-05, No Iterations 3
smoothSolver:  Solving for Uy, Initial residual = 0.017718476, Final residual = 0.00058801049, No Iterations 3
smoothSolver:  Solving for Uz, Initial residual = 0.0030239439, Final residual = 0.00010292339, No Iterations 3
GAMG:  Solving for p, Initial residual = 0.018108875, Final residual = 7.7364827e-05, No Iterations 4
time step continuity errors : sum local = 6.1102777e-06, global = 8.981645e-08, cumulative = 0.00022472719
ExecutionTime = 5.867842 s  ClockTime = 6 s

Time = 42s

smoothSolver:  Solving for Ux, Initial residual = 0.0020543374, Final residual = 6.9462e-05, No Iterations 3
smoothSolver:  Solving for Uy, Initial residual = 0.016873847, Final residual = 0.00056590991, No Iterations 3
smoothSolver:  Solving for Uz, Initial residual = 0.0029500628, Final residual = 0.00010046398, No Iterations 3
GAMG:  Solving for p, Initial residual = 0.017027934, Final residual = 9.1805229e-05, No Iterations 4
time step continuity errors : sum local = 7.2390252e-06, global = 7.2482281e-08, cumulative = 0.00022479967
ExecutionTime = 5.999224 s  ClockTime = 6 s

Time = 43s

smoothSolver:  Solving for Ux, Initial residual = 0.0020090018, Final residual = 6.795557e-05, No Iterations 3
smoothSolver:  Solving for Uy, Initial residual = 0.016419345, Final residual = 0.00055189909, No Iterations 3
smoothSolver:  Solving for Uz, Initial residual = 0.0028504826, Final residual = 9.6846293e-05, No Iterations 3
GAMG:  Solving for p, Initial residual = 0.016570101, Final residual = 8.5417024e-05, No Iterations 4
time step continuity errors : sum local = 6.6392884e-06, global = 7.5361461e-08, cumulative = 0.00022487503
ExecutionTime = 6.130054 s  ClockTime = 6 s

Time = 44s

smoothSolver:  Solving for Ux, Initial residual = 0.0019677223, Final residual = 6.64845e-05, No Iterations 3
smoothSolver:  Solving for Uy, Initial residual = 0.016010545, Final residual = 0.0005375653, No Iterations 3
smoothSolver:  Solving for Uz, Initial residual = 0.002759374, Final residual = 9.3558789e-05, No Iterations 3
GAMG:  Solving for p, Initial residual = 0.016852752, Final residual = 0.00015600287, No Iterations 3
time step continuity errors : sum local = 1.1947377e-05, global = 1.4861061e-07, cumulative = 0.00022502365
ExecutionTime = 6.252584 s  ClockTime = 6 s

Time = 45s

smoothSolver:  Solving for Ux, Initial residual = 0.0019236033, Final residual = 6.509752e-05, No Iterations 3
smoothSolver:  Solving for Uy, Initial residual = 0.0155277, Final residual = 0.00052271228, No Iterations 3
smoothSolver:  Solving for Uz, Initial residual = 0.0026921424, Final residual = 9.1310328e-05, No Iterations 3
GAMG:  Solving for p, Initial residual = 0.016643086, Final residual = 9.5906411e-05, No Iterations 3
time step continuity errors : sum local = 7.3018547e-06, global = 8.2711285e-08, cumulative = 0.00022510636
ExecutionTime = 6.37475 s  ClockTime = 6 s

Time = 46s

smoothSolver:  Solving for Ux, Initial residual = 0.0018853402, Final residual = 6.3989615e-05, No Iterations 3
smoothSolver:  Solving for Uy, Initial residual = 0.015148258, Final residual = 0.00051134301, No Iterations 3
smoothSolver:  Solving for Uz, Initial residual = 0.0026427625, Final residual = 8.983784e-05, No Iterations 3
GAMG:  Solving for p, Initial residual = 0.015882827, Final residual = 0.00010778283, No Iterations 3
time step continuity errors : sum local = 8.2278826e-06, global = -6.5971872e-08, cumulative = 0.00022504038
ExecutionTime = 6.498176 s  ClockTime = 6 s

Time = 47s

smoothSolver:  Solving for Ux, Initial residual = 0.0018508578, Final residual = 6.2991243e-05, No Iterations 3
smoothSolver:  Solving for Uy, Initial residual = 0.01484422, Final residual = 0.00050168958, No Iterations 3
smoothSolver:  Solving for Uz, Initial residual = 0.0026013531, Final residual = 8.8685606e-05, No Iterations 3
GAMG:  Solving for p, Initial residual = 0.015175297, Final residual = 0.00010559397, No Iterations 3
time step continuity errors : sum local = 8.1086545e-06, global = -5.6656575e-08, cumulative = 0.00022498373
ExecutionTime = 6.620371 s  ClockTime = 6 s

Time = 48s

smoothSolver:  Solving for Ux, Initial residual = 0.0018162192, Final residual = 6.1987337e-05, No Iterations 3
smoothSolver:  Solving for Uy, Initial residual = 0.014499612, Final residual = 0.00049069321, No Iterations 3
smoothSolver:  Solving for Uz, Initial residual = 0.0025620807, Final residual = 8.7588665e-05, No Iterations 3
GAMG:  Solving for p, Initial residual = 0.014663145, Final residual = 6.888141e-05, No Iterations 3
time step continuity errors : sum local = 5.3226432e-06, global = 3.6492149e-08, cumulative = 0.00022502022
ExecutionTime = 6.743501 s  ClockTime = 6 s

Time = 49s

smoothSolver:  Solving for Ux, Initial residual = 0.001782098, Final residual = 6.0985487e-05, No Iterations 3
smoothSolver:  Solving for Uy, Initial residual = 0.014122419, Final residual = 0.00047894342, No Iterations 3
smoothSolver:  Solving for Uz, Initial residual = 0.0025194797, Final residual = 8.6296518e-05, No Iterations 3
GAMG:  Solving for p, Initial residual = 0.014273132, Final residual = 0.00010319057, No Iterations 3
time step continuity errors : sum local = 8.0017392e-06, global = 1.2862703e-07, cumulative = 0.00022514885
ExecutionTime = 6.864561 s  ClockTime = 7 s

Time = 50s

smoothSolver:  Solving for Ux, Initial residual = 0.0017512999, Final residual = 6.0058126e-05, No Iterations 3
smoothSolver:  Solving for Uy, Initial residual = 0.013774296, Final residual = 0.00046814429, No Iterations 3
smoothSolver:  Solving for Uz, Initial residual = 0.0024737622, Final residual = 8.4823844e-05, No Iterations 3
GAMG:  Solving for p, Initial residual = 0.013950579, Final residual = 0.00011508899, No Iterations 3
time step continuity errors : sum local = 8.9310829e-06, global = 1.4361537e-07, cumulative = 0.00022529246
ExecutionTime = 6.987654 s  ClockTime = 7 s

Time = 51s

smoothSolver:  Solving for Ux, Initial residual = 0.0017239065, Final residual = 5.9195212e-05, No Iterations 3
smoothSolver:  Solving for Uy, Initial residual = 0.013466673, Final residual = 0.00045848776, No Iterations 3
smoothSolver:  Solving for Uz, Initial residual = 0.002425154, Final residual = 8.3186677e-05, No Iterations 3
GAMG:  Solving for p, Initial residual = 0.01373646, Final residual = 0.00011328113, No Iterations 3
time step continuity errors : sum local = 8.7716862e-06, global = 1.3768951e-07, cumulative = 0.00022543015
ExecutionTime = 7.111004 s  ClockTime = 7 s

Time = 52s

smoothSolver:  Solving for Ux, Initial residual = 0.0016981361, Final residual = 5.8367318e-05, No Iterations 3
smoothSolver:  Solving for Uy, Initial residual = 0.013185193, Final residual = 0.0004495576, No Iterations 3
smoothSolver:  Solving for Uz, Initial residual = 0.0023777231, Final residual = 8.1587913e-05, No Iterations 3
GAMG:  Solving for p, Initial residual = 0.013574344, Final residual = 0.0001021227, No Iterations 3
time step continuity errors : sum local = 7.8859506e-06, global = 1.1548295e-07, cumulative = 0.00022554564
ExecutionTime = 7.234984 s  ClockTime = 7 s

Time = 53s

smoothSolver:  Solving for Ux, Initial residual = 0.0016729238, Final residual = 5.7568645e-05, No Iterations 3
smoothSolver:  Solving for Uy, Initial residual = 0.01291671, Final residual = 0.00044123437, No Iterations 3
smoothSolver:  Solving for Uz, Initial residual = 0.0023342785, Final residual = 8.0158549e-05, No Iterations 3
GAMG:  Solving for p, Initial residual = 0.013360722, Final residual = 9.0105693e-05, No Iterations 3
time step continuity errors : sum local = 6.9485093e-06, global = 8.2719609e-08, cumulative = 0.00022562835
ExecutionTime = 7.3576 s  ClockTime = 7 s

Time = 54s

smoothSolver:  Solving for Ux, Initial residual = 0.001648296, Final residual = 5.6796877e-05, No Iterations 3
smoothSolver:  Solving for Uy, Initial residual = 0.012658804, Final residual = 0.00043330552, No Iterations 3
smoothSolver:  Solving for Uz, Initial residual = 0.0022951688, Final residual = 7.8915325e-05, No Iterations 3
GAMG:  Solving for p, Initial residual = 0.013073775, Final residual = 0.00012964993, No Iterations 2
time step continuity errors : sum local = 1.0004022e-05, global = 1.7666224e-07, cumulative = 0.00022580502
ExecutionTime = 7.473362 s  ClockTime = 7 s

Time = 55s

smoothSolver:  Solving for Ux, Initial residual = 0.0016236308, Final residual = 5.6031187e-05, No Iterations 3
smoothSolver:  Solving for Uy, Initial residual = 0.012403065, Final residual = 0.00042548664, No Iterations 3
smoothSolver:  Solving for Uz, Initial residual = 0.0022595362, Final residual = 7.7816965e-05, No Iterations 3
GAMG:  Solving for p, Initial residual = 0.012749415, Final residual = 8.0135845e-05, No Iterations 3
time step continuity errors : sum local = 6.1978804e-06, global = 1.1270292e-07, cumulative = 0.00022591772
ExecutionTime = 7.596503 s  ClockTime = 7 s

Time = 56s

smoothSolver:  Solving for Ux, Initial residual = 0.0016014327, Final residual = 5.533226e-05, No Iterations 3
smoothSolver:  Solving for Uy, Initial residual = 0.012148924, Final residual = 0.00041759358, No Iterations 3
smoothSolver:  Solving for Uz, Initial residual = 0.0022244991, Final residual = 7.6713353e-05, No Iterations 3
GAMG:  Solving for p, Initial residual = 0.012497809, Final residual = 9.1629888e-05, No Iterations 3
time step continuity errors : sum local = 7.0985823e-06, global = 1.1731133e-07, cumulative = 0.00022603503
ExecutionTime = 7.719609 s  ClockTime = 7 s

Time = 57s

smoothSolver:  Solving for Ux, Initial residual = 0.0015802343, Final residual = 5.465722e-05, No Iterations 3
smoothSolver:  Solving for Uy, Initial residual = 0.011899449, Final residual = 0.00040977634, No Iterations 3
smoothSolver:  Solving for Uz, Initial residual = 0.0021898315, Final residual = 7.5603463e-05, No Iterations 3
GAMG:  Solving for p, Initial residual = 0.0122794, Final residual = 9.2362343e-05, No Iterations 3
time step continuity errors : sum local = 7.1626698e-06, global = 1.1232032e-07, cumulative = 0.00022614735
ExecutionTime = 7.843137 s  ClockTime = 8 s

Time = 58s

smoothSolver:  Solving for Ux, Initial residual = 0.0015600381, Final residual = 5.4005197e-05, No Iterations 3
smoothSolver:  Solving for Uy, Initial residual = 0.011660435, Final residual = 0.00040220047, No Iterations 3
smoothSolver:  Solving for Uz, Initial residual = 0.0021553415, Final residual = 7.448015e-05, No Iterations 3
GAMG:  Solving for p, Initial residual = 0.01208355, Final residual = 8.6767633e-05, No Iterations 3
time step continuity errors : sum local = 6.7310726e-06, global = 1.0313772e-07, cumulative = 0.00022625049
ExecutionTime = 7.966629 s  ClockTime = 8 s

Time = 59s

smoothSolver:  Solving for Ux, Initial residual = 0.0015406543, Final residual = 5.3372403e-05, No Iterations 3
smoothSolver:  Solving for Uy, Initial residual = 0.011433377, Final residual = 0.00039491428, No Iterations 3
smoothSolver:  Solving for Uz, Initial residual = 0.0021214246, Final residual = 7.336682e-05, No Iterations 3
GAMG:  Solving for p, Initial residual = 0.011897375, Final residual = 8.1541844e-05, No Iterations 3
time step continuity errors : sum local = 6.3258014e-06, global = 9.1330996e-08, cumulative = 0.00022634182
ExecutionTime = 8.090564 s  ClockTime = 8 s

Time = 60s

smoothSolver:  Solving for Ux, Initial residual = 0.0015219578, Final residual = 5.2758154e-05, No Iterations 3
smoothSolver:  Solving for Uy, Initial residual = 0.011216765, Final residual = 0.00038789881, No Iterations 3
smoothSolver:  Solving for Uz, Initial residual = 0.0020886455, Final residual = 7.2293728e-05, No Iterations 3
GAMG:  Solving for p, Initial residual = 0.0117092, Final residual = 7.8176438e-05, No Iterations 3
time step continuity errors : sum local = 6.0656647e-06, global = 7.901674e-08, cumulative = 0.00022642084
ExecutionTime = 8.218729 s  ClockTime = 8 s

Time = 61s

smoothSolver:  Solving for Ux, Initial residual = 0.001503936, Final residual = 5.2165205e-05, No Iterations 3
smoothSolver:  Solving for Uy, Initial residual = 0.011008725, Final residual = 0.00038104218, No Iterations 3
smoothSolver:  Solving for Uz, Initial residual = 0.0020573081, Final residual = 7.1275793e-05, No Iterations 3
GAMG:  Solving for p, Initial residual = 0.011517037, Final residual = 7.6182188e-05, No Iterations 3
time step continuity errors : sum local = 5.9140788e-06, global = 7.4566016e-08, cumulative = 0.0002264954
ExecutionTime = 8.348467 s  ClockTime = 8 s

Time = 62s

smoothSolver:  Solving for Ux, Initial residual = 0.0014866585, Final residual = 5.1596622e-05, No Iterations 3
smoothSolver:  Solving for Uy, Initial residual = 0.010806411, Final residual = 0.00037427157, No Iterations 3
smoothSolver:  Solving for Uz, Initial residual = 0.0020273314, Final residual = 7.0308033e-05, No Iterations 3
GAMG:  Solving for p, Initial residual = 0.011325719, Final residual = 7.6053408e-05, No Iterations 3
time step continuity errors : sum local = 5.9091679e-06, global = 7.8964942e-08, cumulative = 0.00022657437
ExecutionTime = 8.477837 s  ClockTime = 8 s

Time = 63s

smoothSolver:  Solving for Ux, Initial residual = 0.0014702213, Final residual = 5.105249e-05, No Iterations 3
smoothSolver:  Solving for Uy, Initial residual = 0.010607876, Final residual = 0.00036755337, No Iterations 3
smoothSolver:  Solving for Uz, Initial residual = 0.0019984218, Final residual = 6.9375206e-05, No Iterations 3
GAMG:  Solving for p, Initial residual = 0.011143153, Final residual = 7.8259187e-05, No Iterations 3
time step continuity errors : sum local = 6.0864501e-06, global = 8.5940483e-08, cumulative = 0.00022666031
ExecutionTime = 8.601044 s  ClockTime = 8 s

Time = 64s

smoothSolver:  Solving for Ux, Initial residual = 0.0014546232, Final residual = 5.0529683e-05, No Iterations 3
smoothSolver:  Solving for Uy, Initial residual = 0.010413947, Final residual = 0.00036091819, No Iterations 3
smoothSolver:  Solving for Uz, Initial residual = 0.001970303, Final residual = 6.8462736e-05, No Iterations 3
GAMG:  Solving for p, Initial residual = 0.01097361, Final residual = 7.9934566e-05, No Iterations 3
time step continuity errors : sum local = 6.2221491e-06, global = 9.1009622e-08, cumulative = 0.00022675132
ExecutionTime = 8.725524 s  ClockTime = 8 s

Time = 65s

smoothSolver:  Solving for Ux, Initial residual = 0.0014397932, Final residual = 5.0027213e-05, No Iterations 3
smoothSolver:  Solving for Uy, Initial residual = 0.010225778, Final residual = 0.00035440268, No Iterations 3
smoothSolver:  Solving for Uz, Initial residual = 0.0019428497, Final residual = 6.7564896e-05, No Iterations 3
GAMG:  Solving for p, Initial residual = 0.010815192, Final residual = 7.9452326e-05, No Iterations 3
time step continuity errors : sum local = 6.1889025e-06, global = 9.160471e-08, cumulative = 0.00022684292
ExecutionTime = 8.848329 s  ClockTime = 9 s

Time = 66s

smoothSolver:  Solving for Ux, Initial residual = 0.0014256096, Final residual = 4.9542247e-05, No Iterations 3
smoothSolver:  Solving for Uy, Initial residual = 0.010043794, Final residual = 0.00034804347, No Iterations 3
smoothSolver:  Solving for Uz, Initial residual = 0.0019160562, Final residual = 6.6683883e-05, No Iterations 3
GAMG:  Solving for p, Initial residual = 0.010662635, Final residual = 7.7538013e-05, No Iterations 3
time step continuity errors : sum local = 6.0432494e-06, global = 8.9355125e-08, cumulative = 0.00022693228
ExecutionTime = 8.971698 s  ClockTime = 9 s

Time = 67s

smoothSolver:  Solving for Ux, Initial residual = 0.0014120191, Final residual = 4.9072257e-05, No Iterations 3
smoothSolver:  Solving for Uy, Initial residual = 0.0098684936, Final residual = 0.00034186321, No Iterations 3
smoothSolver:  Solving for Uz, Initial residual = 0.0018899798, Final residual = 6.582534e-05, No Iterations 3
GAMG:  Solving for p, Initial residual = 0.010512877, Final residual = 7.5303372e-05, No Iterations 3
time step continuity errors : sum local = 5.8724121e-06, global = 8.5009839e-08, cumulative = 0.00022701729
ExecutionTime = 9.095435 s  ClockTime = 9 s

Time = 68s

smoothSolver:  Solving for Ux, Initial residual = 0.0013989562, Final residual = 4.8618382e-05, No Iterations 3
smoothSolver:  Solving for Uy, Initial residual = 0.0096992118, Final residual = 0.00033586308, No Iterations 3
smoothSolver:  Solving for Uz, Initial residual = 0.0018646798, Final residual = 6.4993062e-05, No Iterations 3
GAMG:  Solving for p, Initial residual = 0.010364394, Final residual = 7.3248697e-05, No Iterations 3
time step continuity errors : sum local = 5.7158876e-06, global = 8.0992073e-08, cumulative = 0.00022709828
ExecutionTime = 9.218771 s  ClockTime = 9 s

Time = 69s

smoothSolver:  Solving for Ux, Initial residual = 0.0013864666, Final residual = 4.8180196e-05, No Iterations 3
smoothSolver:  Solving for Uy, Initial residual = 0.0095353871, Final residual = 0.0003300109, No Iterations 3
smoothSolver:  Solving for Uz, Initial residual = 0.0018401531, Final residual = 6.4187014e-05, No Iterations 3
GAMG:  Solving for p, Initial residual = 0.010218292, Final residual = 7.1886222e-05, No Iterations 3
time step continuity errors : sum local = 5.6137692e-06, global = 7.8827198e-08, cumulative = 0.00022717711
ExecutionTime = 9.342168 s  ClockTime = 9 s

Time = 70s

smoothSolver:  Solving for Ux, Initial residual = 0.0013746177, Final residual = 4.7759641e-05, No Iterations 3
smoothSolver:  Solving for Uy, Initial residual = 0.0093756692, Final residual = 0.00032427527, No Iterations 3
smoothSolver:  Solving for Uz, Initial residual = 0.0018163514, Final residual = 6.3404802e-05, No Iterations 3
GAMG:  Solving for p, Initial residual = 0.010076565, Final residual = 7.1513201e-05, No Iterations 3
time step continuity errors : sum local = 5.5891572e-06, global = 7.8887895e-08, cumulative = 0.000227256
ExecutionTime = 9.468287 s  ClockTime = 9 s

Time = 71s

smoothSolver:  Solving for Ux, Initial residual = 0.0013634094, Final residual = 4.735844e-05, No Iterations 3
smoothSolver:  Solving for Uy, Initial residual = 0.0092198102, Final residual = 0.00031870031, No Iterations 3
smoothSolver:  Solving for Uz, Initial residual = 0.0017932164, Final residual = 6.264288e-05, No Iterations 3
GAMG:  Solving for p, Initial residual = 0.009940867, Final residual = 7.1643711e-05, No Iterations 3
time step continuity errors : sum local = 5.6039029e-06, global = 8.0040426e-08, cumulative = 0.00022733604
ExecutionTime = 9.593075 s  ClockTime = 9 s

Time = 72s

smoothSolver:  Solving for Ux, Initial residual = 0.0013527972, Final residual = 4.6975447e-05, No Iterations 3
smoothSolver:  Solving for Uy, Initial residual = 0.0090680164, Final residual = 0.00031331086, No Iterations 3
smoothSolver:  Solving for Uz, Initial residual = 0.0017706962, Final residual = 6.1898797e-05, No Iterations 3
GAMG:  Solving for p, Initial residual = 0.0098114889, Final residual = 7.1548114e-05, No Iterations 3
time step continuity errors : sum local = 5.6007739e-06, global = 8.0715273e-08, cumulative = 0.00022741675
ExecutionTime = 9.716735 s  ClockTime = 9 s

Time = 73s

smoothSolver:  Solving for Ux, Initial residual = 0.0013427377, Final residual = 4.6610709e-05, No Iterations 3
smoothSolver:  Solving for Uy, Initial residual = 0.0089207252, Final residual = 0.00030813042, No Iterations 3
smoothSolver:  Solving for Uz, Initial residual = 0.0017487557, Final residual = 6.1171453e-05, No Iterations 3
GAMG:  Solving for p, Initial residual = 0.0096870336, Final residual = 7.0885149e-05, No Iterations 3
time step continuity errors : sum local = 5.5529894e-06, global = 8.1591177e-08, cumulative = 0.00022749834
ExecutionTime = 9.84046 s  ClockTime = 10 s

Time = 74s

smoothSolver:  Solving for Ux, Initial residual = 0.0013331723, Final residual = 4.6263397e-05, No Iterations 3
smoothSolver:  Solving for Uy, Initial residual = 0.0087776714, Final residual = 0.00030313177, No Iterations 3
smoothSolver:  Solving for Uz, Initial residual = 0.0017273881, Final residual = 6.0461049e-05, No Iterations 3
GAMG:  Solving for p, Initial residual = 0.0095658497, Final residual = 6.9747291e-05, No Iterations 3
time step continuity errors : sum local = 5.4678324e-06, global = 8.1128528e-08, cumulative = 0.00022757947
ExecutionTime = 9.964695 s  ClockTime = 10 s

Time = 75s

smoothSolver:  Solving for Ux, Initial residual = 0.0013240777, Final residual = 4.5932159e-05, No Iterations 3
smoothSolver:  Solving for Uy, Initial residual = 0.0086391769, Final residual = 0.00029833778, No Iterations 3
smoothSolver:  Solving for Uz, Initial residual = 0.0017065857, Final residual = 5.9768334e-05, No Iterations 3
GAMG:  Solving for p, Initial residual = 0.0094473, Final residual = 6.8410425e-05, No Iterations 3
time step continuity errors : sum local = 5.3670231e-06, global = 8.0345798e-08, cumulative = 0.00022765982
ExecutionTime = 10.088271 s  ClockTime = 10 s

Time = 76s

smoothSolver:  Solving for Ux, Initial residual = 0.0013155279, Final residual = 4.5617723e-05, No Iterations 3
smoothSolver:  Solving for Uy, Initial residual = 0.0085043719, Final residual = 0.00029373248, No Iterations 3
smoothSolver:  Solving for Uz, Initial residual = 0.0016863297, Final residual = 5.9092537e-05, No Iterations 3
GAMG:  Solving for p, Initial residual = 0.0093313604, Final residual = 6.7153443e-05, No Iterations 3
time step continuity errors : sum local = 5.2724902e-06, global = 7.9106124e-08, cumulative = 0.00022773892
ExecutionTime = 10.21299 s  ClockTime = 10 s

Time = 77s

smoothSolver:  Solving for Ux, Initial residual = 0.0013074865, Final residual = 4.5322811e-05, No Iterations 3
smoothSolver:  Solving for Uy, Initial residual = 0.0083736796, Final residual = 0.0002892928, No Iterations 3
smoothSolver:  Solving for Uz, Initial residual = 0.0016666037, Final residual = 5.8433118e-05, No Iterations 3
GAMG:  Solving for p, Initial residual = 0.0092178382, Final residual = 6.6152446e-05, No Iterations 3
time step continuity errors : sum local = 5.1980548e-06, global = 7.7976987e-08, cumulative = 0.0002278169
ExecutionTime = 10.335678 s  ClockTime = 10 s

Time = 78s

smoothSolver:  Solving for Ux, Initial residual = 0.00129997, Final residual = 4.5046136e-05, No Iterations 3
smoothSolver:  Solving for Uy, Initial residual = 0.0082466791, Final residual = 0.00028500209, No Iterations 3
smoothSolver:  Solving for Uz, Initial residual = 0.0016473943, Final residual = 5.7789512e-05, No Iterations 3
GAMG:  Solving for p, Initial residual = 0.0091077945, Final residual = 6.5416658e-05, No Iterations 3
time step continuity errors : sum local = 5.1444132e-06, global = 7.718959e-08, cumulative = 0.00022789409
ExecutionTime = 10.457816 s  ClockTime = 10 s

Time = 79s

smoothSolver:  Solving for Ux, Initial residual = 0.0012929677, Final residual = 4.4789401e-05, No Iterations 3
smoothSolver:  Solving for Uy, Initial residual = 0.0081229637, Final residual = 0.00028085895, No Iterations 3
smoothSolver:  Solving for Uz, Initial residual = 0.0016286706, Final residual = 5.7160648e-05, No Iterations 3
GAMG:  Solving for p, Initial residual = 0.0090013652, Final residual = 6.4792824e-05, No Iterations 3
time step continuity errors : sum local = 5.0994839e-06, global = 7.6774603e-08, cumulative = 0.00022797086
ExecutionTime = 10.580462 s  ClockTime = 10 s

Time = 80s

smoothSolver:  Solving for Ux, Initial residual = 0.0012863995, Final residual = 4.4549249e-05, No Iterations 3
smoothSolver:  Solving for Uy, Initial residual = 0.0080029578, Final residual = 0.00027683942, No Iterations 3
smoothSolver:  Solving for Uz, Initial residual = 0.0016104181, Final residual = 5.6546319e-05, No Iterations 3
GAMG:  Solving for p, Initial residual = 0.0088984593, Final residual = 6.4105745e-05, No Iterations 3
time step continuity errors : sum local = 5.0494514e-06, global = 7.6586035e-08, cumulative = 0.00022804745
ExecutionTime = 10.703977 s  ClockTime = 10 s

Time = 81s

smoothSolver:  Solving for Ux, Initial residual = 0.0012802502, Final residual = 4.4324339e-05, No Iterations 3
smoothSolver:  Solving for Uy, Initial residual = 0.0078862645, Final residual = 0.00027293892, No Iterations 3
smoothSolver:  Solving for Uz, Initial residual = 0.0015926121, Final residual = 5.5945995e-05, No Iterations 3
GAMG:  Solving for p, Initial residual = 0.008798435, Final residual = 6.3290038e-05, No Iterations 3
time step continuity errors : sum local = 4.9891616e-06, global = 7.6533699e-08, cumulative = 0.00022812398
ExecutionTime = 10.825968 s  ClockTime = 11 s

Time = 82s

smoothSolver:  Solving for Ux, Initial residual = 0.001274501, Final residual = 4.4115962e-05, No Iterations 3
smoothSolver:  Solving for Uy, Initial residual = 0.007772656, Final residual = 0.00026915383, No Iterations 3
smoothSolver:  Solving for Uz, Initial residual = 0.0015752401, Final residual = 5.5359953e-05, No Iterations 3
GAMG:  Solving for p, Initial residual = 0.0087025939, Final residual = 6.2398753e-05, No Iterations 3
time step continuity errors : sum local = 4.9228171e-06, global = 7.6471863e-08, cumulative = 0.00022820046
ExecutionTime = 10.949167 s  ClockTime = 11 s

Time = 83s

smoothSolver:  Solving for Ux, Initial residual = 0.0012691426, Final residual = 4.3924509e-05, No Iterations 3
smoothSolver:  Solving for Uy, Initial residual = 0.0076619985, Final residual = 0.00026548657, No Iterations 3
smoothSolver:  Solving for Uz, Initial residual = 0.0015582925, Final residual = 5.4787667e-05, No Iterations 3
GAMG:  Solving for p, Initial residual = 0.0086099352, Final residual = 6.1502132e-05, No Iterations 3
time step continuity errors : sum local = 4.8559767e-06, global = 7.6295415e-08, cumulative = 0.00022827675
ExecutionTime = 11.072857 s  ClockTime = 11 s

Time = 84s

smoothSolver:  Solving for Ux, Initial residual = 0.001264152, Final residual = 4.3749377e-05, No Iterations 3
smoothSolver:  Solving for Uy, Initial residual = 0.0075540372, Final residual = 0.00026190284, No Iterations 3
smoothSolver:  Solving for Uz, Initial residual = 0.001541752, Final residual = 5.4228695e-05, No Iterations 3
GAMG:  Solving for p, Initial residual = 0.0085197838, Final residual = 6.0665433e-05, No Iterations 3
time step continuity errors : sum local = 4.7938099e-06, global = 7.5985406e-08, cumulative = 0.00022835274
ExecutionTime = 11.196007 s  ClockTime = 11 s

Time = 85s

smoothSolver:  Solving for Ux, Initial residual = 0.0012595189, Final residual = 4.3589187e-05, No Iterations 3
smoothSolver:  Solving for Uy, Initial residual = 0.0074488511, Final residual = 0.00025840934, No Iterations 3
smoothSolver:  Solving for Uz, Initial residual = 0.0015256004, Final residual = 5.3682468e-05, No Iterations 3
GAMG:  Solving for p, Initial residual = 0.0084316837, Final residual = 5.9929425e-05, No Iterations 3
time step continuity errors : sum local = 4.7395413e-06, global = 7.5584546e-08, cumulative = 0.00022842832
ExecutionTime = 11.31951 s  ClockTime = 11 s

Time = 86s

smoothSolver:  Solving for Ux, Initial residual = 0.0012552517, Final residual = 4.3443315e-05, No Iterations 3
smoothSolver:  Solving for Uy, Initial residual = 0.0073466387, Final residual = 0.00025499425, No Iterations 3
smoothSolver:  Solving for Uz, Initial residual = 0.0015098295, Final residual = 5.3148947e-05, No Iterations 3
GAMG:  Solving for p, Initial residual = 0.0083451313, Final residual = 5.9280063e-05, No Iterations 3
time step continuity errors : sum local = 4.6920447e-06, global = 7.5162723e-08, cumulative = 0.00022850348
ExecutionTime = 11.444444 s  ClockTime = 11 s

Time = 87s

smoothSolver:  Solving for Ux, Initial residual = 0.001251312, Final residual = 4.3311052e-05, No Iterations 3
smoothSolver:  Solving for Uy, Initial residual = 0.0072468831, Final residual = 0.00025166605, No Iterations 3
smoothSolver:  Solving for Uz, Initial residual = 0.001494429, Final residual = 5.2627435e-05, No Iterations 3
GAMG:  Solving for p, Initial residual = 0.0082611756, Final residual = 5.8667287e-05, No Iterations 3
time step continuity errors : sum local = 4.6473545e-06, global = 7.4784052e-08, cumulative = 0.00022857827
ExecutionTime = 11.568961 s  ClockTime = 11 s

Time = 88s

smoothSolver:  Solving for Ux, Initial residual = 0.0012476395, Final residual = 4.3192131e-05, No Iterations 3
smoothSolver:  Solving for Uy, Initial residual = 0.0071503952, Final residual = 0.00024842613, No Iterations 3
smoothSolver:  Solving for Uz, Initial residual = 0.0014793904, Final residual = 5.2118023e-05, No Iterations 3
GAMG:  Solving for p, Initial residual = 0.0081803618, Final residual = 5.8050531e-05, No Iterations 3
time step continuity errors : sum local = 4.6022592e-06, global = 7.4487606e-08, cumulative = 0.00022865275
ExecutionTime = 11.693092 s  ClockTime = 11 s

Time = 89s

smoothSolver:  Solving for Ux, Initial residual = 0.0012441992, Final residual = 4.3084308e-05, No Iterations 3
smoothSolver:  Solving for Uy, Initial residual = 0.0070566706, Final residual = 0.00024527556, No Iterations 3
smoothSolver:  Solving for Uz, Initial residual = 0.0014647001, Final residual = 5.1620345e-05, No Iterations 3
GAMG:  Solving for p, Initial residual = 0.0081020088, Final residual = 5.7422098e-05, No Iterations 3
time step continuity errors : sum local = 4.556149e-06, global = 7.4298947e-08, cumulative = 0.00022872705
ExecutionTime = 11.81631 s  ClockTime = 12 s

Time = 90s

smoothSolver:  Solving for Ux, Initial residual = 0.0012409755, Final residual = 4.2986801e-05, No Iterations 3
smoothSolver:  Solving for Uy, Initial residual = 0.0069656614, Final residual = 0.00024218718, No Iterations 3
smoothSolver:  Solving for Uz, Initial residual = 0.0014503389, Final residual = 5.1133727e-05, No Iterations 3
GAMG:  Solving for p, Initial residual = 0.0080259755, Final residual = 5.6808974e-05, No Iterations 3
time step continuity errors : sum local = 4.511175e-06, global = 7.419858e-08, cumulative = 0.00022880125
ExecutionTime = 11.93905 s  ClockTime = 12 s

Time = 91s

smoothSolver:  Solving for Ux, Initial residual = 0.0012379945, Final residual = 4.2897676e-05, No Iterations 3
smoothSolver:  Solving for Uy, Initial residual = 0.0068775413, Final residual = 0.00023919102, No Iterations 3
smoothSolver:  Solving for Uz, Initial residual = 0.0014363068, Final residual = 5.065806e-05, No Iterations 3
GAMG:  Solving for p, Initial residual = 0.0079519718, Final residual = 5.6231394e-05, No Iterations 3
time step continuity errors : sum local = 4.4689626e-06, global = 7.4125792e-08, cumulative = 0.00022887538
ExecutionTime = 12.06254 s  ClockTime = 12 s

Time = 92s

smoothSolver:  Solving for Ux, Initial residual = 0.0012352363, Final residual = 4.2817051e-05, No Iterations 3
smoothSolver:  Solving for Uy, Initial residual = 0.0067918032, Final residual = 0.00023627676, No Iterations 3
smoothSolver:  Solving for Uz, Initial residual = 0.0014225854, Final residual = 5.0193172e-05, No Iterations 3
GAMG:  Solving for p, Initial residual = 0.007879523, Final residual = 5.5694454e-05, No Iterations 3
time step continuity errors : sum local = 4.429917e-06, global = 7.4030628e-08, cumulative = 0.00022894941
ExecutionTime = 12.188105 s  ClockTime = 12 s

Time = 93s

smoothSolver:  Solving for Ux, Initial residual = 0.0012327027, Final residual = 4.2744249e-05, No Iterations 3
smoothSolver:  Solving for Uy, Initial residual = 0.0067087439, Final residual = 0.00023343757, No Iterations 3
smoothSolver:  Solving for Uz, Initial residual = 0.0014091647, Final residual = 4.9738625e-05, No Iterations 3
GAMG:  Solving for p, Initial residual = 0.0078091129, Final residual = 5.5189935e-05, No Iterations 3
time step continuity errors : sum local = 4.3933881e-06, global = 7.3874476e-08, cumulative = 0.00022902328
ExecutionTime = 12.312215 s  ClockTime = 12 s

Time = 94s

smoothSolver:  Solving for Ux, Initial residual = 0.0012303937, Final residual = 4.267892e-05, No Iterations 3
smoothSolver:  Solving for Uy, Initial residual = 0.0066279666, Final residual = 0.00023067079, No Iterations 3
smoothSolver:  Solving for Uz, Initial residual = 0.0013960386, Final residual = 4.9293897e-05, No Iterations 3
GAMG:  Solving for p, Initial residual = 0.0077404212, Final residual = 5.4700964e-05, No Iterations 3
time step continuity errors : sum local = 4.3580326e-06, global = 7.3648082e-08, cumulative = 0.00022909693
ExecutionTime = 12.436938 s  ClockTime = 12 s

Time = 95s

smoothSolver:  Solving for Ux, Initial residual = 0.001228251, Final residual = 4.2620273e-05, No Iterations 3
smoothSolver:  Solving for Uy, Initial residual = 0.0065497296, Final residual = 0.00022795739, No Iterations 3
smoothSolver:  Solving for Uz, Initial residual = 0.0013831961, Final residual = 4.885848e-05, No Iterations 3
GAMG:  Solving for p, Initial residual = 0.0076742455, Final residual = 5.4228554e-05, No Iterations 3
time step continuity errors : sum local = 4.3239342e-06, global = 7.3394975e-08, cumulative = 0.00022917033
ExecutionTime = 12.559901 s  ClockTime = 12 s

Time = 96s

smoothSolver:  Solving for Ux, Initial residual = 0.001226269, Final residual = 4.2568231e-05, No Iterations 3
smoothSolver:  Solving for Uy, Initial residual = 0.0064737519, Final residual = 0.00022531149, No Iterations 3
smoothSolver:  Solving for Uz, Initial residual = 0.0013706278, Final residual = 4.8431948e-05, No Iterations 3
GAMG:  Solving for p, Initial residual = 0.0076101626, Final residual = 5.376512e-05, No Iterations 3
time step continuity errors : sum local = 4.2904866e-06, global = 7.31409e-08, cumulative = 0.00022924347
ExecutionTime = 12.682389 s  ClockTime = 13 s

Time = 97s

smoothSolver:  Solving for Ux, Initial residual = 0.0012244534, Final residual = 4.2521818e-05, No Iterations 3
smoothSolver:  Solving for Uy, Initial residual = 0.0064001082, Final residual = 0.00022274466, No Iterations 3
smoothSolver:  Solving for Uz, Initial residual = 0.0013583209, Final residual = 4.8014254e-05, No Iterations 3
GAMG:  Solving for p, Initial residual = 0.0075479417, Final residual = 5.3323923e-05, No Iterations 3
time step continuity errors : sum local = 4.2587563e-06, global = 7.2929982e-08, cumulative = 0.0002293164
ExecutionTime = 12.804985 s  ClockTime = 13 s

Time = 98s

smoothSolver:  Solving for Ux, Initial residual = 0.0012228067, Final residual = 4.2479756e-05, No Iterations 3
smoothSolver:  Solving for Uy, Initial residual = 0.0063283483, Final residual = 0.00022026384, No Iterations 3
smoothSolver:  Solving for Uz, Initial residual = 0.0013462691, Final residual = 4.7605364e-05, No Iterations 3
GAMG:  Solving for p, Initial residual = 0.0074874316, Final residual = 5.2911657e-05, No Iterations 3
time step continuity errors : sum local = 4.2292889e-06, global = 7.2766986e-08, cumulative = 0.00022938916
ExecutionTime = 12.926684 s  ClockTime = 13 s

Time = 99s

smoothSolver:  Solving for Ux, Initial residual = 0.001221304, Final residual = 4.2442053e-05, No Iterations 3
smoothSolver:  Solving for Uy, Initial residual = 0.0062585119, Final residual = 0.00021785651, No Iterations 3
smoothSolver:  Solving for Uz, Initial residual = 0.0013344702, Final residual = 4.7204936e-05, No Iterations 3
GAMG:  Solving for p, Initial residual = 0.0074276417, Final residual = 5.2535928e-05, No Iterations 3
time step continuity errors : sum local = 4.2026931e-06, global = 7.2651084e-08, cumulative = 0.00022946182
ExecutionTime = 13.049705 s  ClockTime = 13 s

Time = 100s

smoothSolver:  Solving for Ux, Initial residual = 0.0012199955, Final residual = 4.2408887e-05, No Iterations 3
smoothSolver:  Solving for Uy, Initial residual = 0.0061907635, Final residual = 0.00021552305, No Iterations 3
smoothSolver:  Solving for Uz, Initial residual = 0.0013229091, Final residual = 4.6813225e-05, No Iterations 3
GAMG:  Solving for p, Initial residual = 0.0073692636, Final residual = 5.2260558e-05, No Iterations 3
time step continuity errors : sum local = 4.1840969e-06, global = 7.3356083e-08, cumulative = 0.00022953517
ExecutionTime = 13.172815 s  ClockTime = 13 s

Time = 101s

smoothSolver:  Solving for Ux, Initial residual = 0.0012188336, Final residual = 4.2381022e-05, No Iterations 3
smoothSolver:  Solving for Uy, Initial residual = 0.0061248273, Final residual = 0.00021325984, No Iterations 3
smoothSolver:  Solving for Uz, Initial residual = 0.0013115825, Final residual = 4.6429727e-05, No Iterations 3
GAMG:  Solving for p, Initial residual = 0.0073117903, Final residual = 5.191338e-05, No Iterations 3
time step continuity errors : sum local = 4.1597154e-06, global = 7.3606137e-08, cumulative = 0.00022960878
ExecutionTime = 13.296371 s  ClockTime = 13 s

Time = 102s

smoothSolver:  Solving for Ux, Initial residual = 0.0012177954, Final residual = 4.2358944e-05, No Iterations 3
smoothSolver:  Solving for Uy, Initial residual = 0.0060606646, Final residual = 0.00021106136, No Iterations 3
smoothSolver:  Solving for Uz, Initial residual = 0.0013004846, Final residual = 4.605431e-05, No Iterations 3
GAMG:  Solving for p, Initial residual = 0.0072560977, Final residual = 5.157332e-05, No Iterations 3
time step continuity errors : sum local = 4.1358535e-06, global = 7.3794427e-08, cumulative = 0.00022968257
ExecutionTime = 13.420354 s  ClockTime = 13 s

Time = 103s

smoothSolver:  Solving for Ux, Initial residual = 0.0012168782, Final residual = 4.2342035e-05, No Iterations 3
smoothSolver:  Solving for Uy, Initial residual = 0.0059980971, Final residual = 0.00020891768, No Iterations 3
smoothSolver:  Solving for Uz, Initial residual = 0.0012896111, Final residual = 4.5686492e-05, No Iterations 3
GAMG:  Solving for p, Initial residual = 0.00720164, Final residual = 5.1222203e-05, No Iterations 3
time step continuity errors : sum local = 4.1110601e-06, global = 7.3705512e-08, cumulative = 0.00022975628
ExecutionTime = 13.542643 s  ClockTime = 13 s

Time = 104s

smoothSolver:  Solving for Ux, Initial residual = 0.0012160827, Final residual = 4.2328242e-05, No Iterations 3
smoothSolver:  Solving for Uy, Initial residual = 0.0059368287, Final residual = 0.0002068392, No Iterations 3
smoothSolver:  Solving for Uz, Initial residual = 0.0012789507, Final residual = 4.5326197e-05, No Iterations 3
GAMG:  Solving for p, Initial residual = 0.007148102, Final residual = 5.0746681e-05, No Iterations 3
time step continuity errors : sum local = 4.076229e-06, global = 7.6557541e-08, cumulative = 0.00022983284
ExecutionTime = 13.666182 s  ClockTime = 14 s

Time = 105s

smoothSolver:  Solving for Ux, Initial residual = 0.0012154023, Final residual = 4.2319133e-05, No Iterations 3
smoothSolver:  Solving for Uy, Initial residual = 0.0058772502, Final residual = 0.00020482701, No Iterations 3
smoothSolver:  Solving for Uz, Initial residual = 0.0012684933, Final residual = 4.4973243e-05, No Iterations 3
GAMG:  Solving for p, Initial residual = 0.0070964111, Final residual = 5.0440201e-05, No Iterations 3
time step continuity errors : sum local = 4.0549332e-06, global = 7.5424118e-08, cumulative = 0.00022990826
ExecutionTime = 13.789034 s  ClockTime = 14 s

Time = 106s

smoothSolver:  Solving for Ux, Initial residual = 0.001214829, Final residual = 4.2313083e-05, No Iterations 3
smoothSolver:  Solving for Uy, Initial residual = 0.0058193383, Final residual = 0.00020287514, No Iterations 3
smoothSolver:  Solving for Uz, Initial residual = 0.0012582346, Final residual = 4.4627196e-05, No Iterations 3
GAMG:  Solving for p, Initial residual = 0.0070473895, Final residual = 5.0151093e-05, No Iterations 3
time step continuity errors : sum local = 4.0349863e-06, global = 7.4256255e-08, cumulative = 0.00022998252
ExecutionTime = 13.911098 s  ClockTime = 14 s

Time = 107s

smoothSolver:  Solving for Ux, Initial residual = 0.0012143521, Final residual = 4.2309763e-05, No Iterations 3
smoothSolver:  Solving for Uy, Initial residual = 0.005763128, Final residual = 0.00020098871, No Iterations 3
smoothSolver:  Solving for Uz, Initial residual = 0.0012481711, Final residual = 4.4288046e-05, No Iterations 3
GAMG:  Solving for p, Initial residual = 0.0070004553, Final residual = 4.9873673e-05, No Iterations 3
time step continuity errors : sum local = 4.0159372e-06, global = 7.2991833e-08, cumulative = 0.00023005551
ExecutionTime = 14.034569 s  ClockTime = 14 s

Time = 108s

smoothSolver:  Solving for Ux, Initial residual = 0.0012139582, Final residual = 4.2309413e-05, No Iterations 3
smoothSolver:  Solving for Uy, Initial residual = 0.0057083968, Final residual = 0.00019915795, No Iterations 3
smoothSolver:  Solving for Uz, Initial residual = 0.0012382957, Final residual = 4.39555e-05, No Iterations 3
GAMG:  Solving for p, Initial residual = 0.0069547985, Final residual = 4.9592771e-05, No Iterations 3
time step continuity errors : sum local = 3.9965729e-06, global = 7.166243e-08, cumulative = 0.00023012717
ExecutionTime = 14.158117 s  ClockTime = 14 s

Time = 109s

smoothSolver:  Solving for Ux, Initial residual = 0.0012136305, Final residual = 4.2311105e-05, No Iterations 3
smoothSolver:  Solving for Uy, Initial residual = 0.0056548967, Final residual = 0.0001973734, No Iterations 3
smoothSolver:  Solving for Uz, Initial residual = 0.0012286025, Final residual = 4.3629231e-05, No Iterations 3
GAMG:  Solving for p, Initial residual = 0.0069106753, Final residual = 4.9312473e-05, No Iterations 3
time step continuity errors : sum local = 3.9772093e-06, global = 7.0380663e-08, cumulative = 0.00023019755
ExecutionTime = 14.281161 s  ClockTime = 14 s

Time = 110s

smoothSolver:  Solving for Ux, Initial residual = 0.0012133727, Final residual = 4.231545e-05, No Iterations 3
smoothSolver:  Solving for Uy, Initial residual = 0.0056025176, Final residual = 0.00019562943, No Iterations 3
smoothSolver:  Solving for Uz, Initial residual = 0.0012190805, Final residual = 4.3309019e-05, No Iterations 3
GAMG:  Solving for p, Initial residual = 0.006867383, Final residual = 4.9039279e-05, No Iterations 3
time step continuity errors : sum local = 3.9583732e-06, global = 6.9150759e-08, cumulative = 0.0002302667
ExecutionTime = 14.404379 s  ClockTime = 14 s

Time = 111s

smoothSolver:  Solving for Ux, Initial residual = 0.0012131805, Final residual = 4.2321511e-05, No Iterations 3
smoothSolver:  Solving for Uy, Initial residual = 0.0055512508, Final residual = 0.00019392559, No Iterations 3
smoothSolver:  Solving for Uz, Initial residual = 0.0012097292, Final residual = 4.2994885e-05, No Iterations 3
GAMG:  Solving for p, Initial residual = 0.0068227424, Final residual = 4.8761928e-05, No Iterations 3
time step continuity errors : sum local = 3.939166e-06, global = 6.798129e-08, cumulative = 0.00023033468
ExecutionTime = 14.527711 s  ClockTime = 14 s

Time = 112s

smoothSolver:  Solving for Ux, Initial residual = 0.0012130479, Final residual = 4.2329731e-05, No Iterations 3
smoothSolver:  Solving for Uy, Initial residual = 0.0055008724, Final residual = 0.00019225284, No Iterations 3
smoothSolver:  Solving for Uz, Initial residual = 0.0012005491, Final residual = 4.2687063e-05, No Iterations 3
GAMG:  Solving for p, Initial residual = 0.0067775985, Final residual = 4.8482322e-05, No Iterations 3
time step continuity errors : sum local = 3.9197335e-06, global = 6.6890325e-08, cumulative = 0.00023040157
ExecutionTime = 14.651474 s  ClockTime = 15 s

Time = 113s

smoothSolver:  Solving for Ux, Initial residual = 0.0012129635, Final residual = 4.233917e-05, No Iterations 3
smoothSolver:  Solving for Uy, Initial residual = 0.0054513727, Final residual = 0.00019061813, No Iterations 3
smoothSolver:  Solving for Uz, Initial residual = 0.0011915308, Final residual = 4.2385039e-05, No Iterations 3
GAMG:  Solving for p, Initial residual = 0.0067335844, Final residual = 4.8201602e-05, No Iterations 3
time step continuity errors : sum local = 3.900163e-06, global = 6.5818989e-08, cumulative = 0.00023046739
ExecutionTime = 14.774185 s  ClockTime = 15 s

Time = 114s

smoothSolver:  Solving for Ux, Initial residual = 0.0012129482, Final residual = 4.2350738e-05, No Iterations 3
smoothSolver:  Solving for Uy, Initial residual = 0.0054030141, Final residual = 0.00018901648, No Iterations 3
smoothSolver:  Solving for Uz, Initial residual = 0.0011826749, Final residual = 4.2088388e-05, No Iterations 3
GAMG:  Solving for p, Initial residual = 0.006689617, Final residual = 4.7931438e-05, No Iterations 3
time step continuity errors : sum local = 3.8814109e-06, global = 6.4918522e-08, cumulative = 0.00023053231
ExecutionTime = 14.897518 s  ClockTime = 15 s

Time = 115s

smoothSolver:  Solving for Ux, Initial residual = 0.0012129924, Final residual = 4.2364086e-05, No Iterations 3
smoothSolver:  Solving for Uy, Initial residual = 0.0053557517, Final residual = 0.00018744474, No Iterations 3
smoothSolver:  Solving for Uz, Initial residual = 0.0011739731, Final residual = 4.179712e-05, No Iterations 3
GAMG:  Solving for p, Initial residual = 0.006646155, Final residual = 4.7683908e-05, No Iterations 3
time step continuity errors : sum local = 3.8644536e-06, global = 6.3871597e-08, cumulative = 0.00023059618
ExecutionTime = 15.020791 s  ClockTime = 15 s

Time = 116s

smoothSolver:  Solving for Ux, Initial residual = 0.0012131025, Final residual = 4.2379335e-05, No Iterations 3
smoothSolver:  Solving for Uy, Initial residual = 0.0053098284, Final residual = 0.00018589136, No Iterations 3
smoothSolver:  Solving for Uz, Initial residual = 0.0011654143, Final residual = 4.1510963e-05, No Iterations 3
GAMG:  Solving for p, Initial residual = 0.0066038557, Final residual = 4.745033e-05, No Iterations 3
time step continuity errors : sum local = 3.8485954e-06, global = 6.312122e-08, cumulative = 0.0002306593
ExecutionTime = 15.144818 s  ClockTime = 15 s

Time = 117s

smoothSolver:  Solving for Ux, Initial residual = 0.0012132463, Final residual = 4.2396222e-05, No Iterations 3
smoothSolver:  Solving for Uy, Initial residual = 0.0052650186, Final residual = 0.00018435777, No Iterations 3
smoothSolver:  Solving for Uz, Initial residual = 0.001156999, Final residual = 4.1229678e-05, No Iterations 3
GAMG:  Solving for p, Initial residual = 0.0065630421, Final residual = 4.72843e-05, No Iterations 3
time step continuity errors : sum local = 3.8381904e-06, global = 6.1955637e-08, cumulative = 0.00023072126
ExecutionTime = 15.268253 s  ClockTime = 15 s

Time = 118s

smoothSolver:  Solving for Ux, Initial residual = 0.0012134378, Final residual = 4.2413959e-05, No Iterations 3
smoothSolver:  Solving for Uy, Initial residual = 0.0052210458, Final residual = 0.00018284738, No Iterations 3
smoothSolver:  Solving for Uz, Initial residual = 0.0011487261, Final residual = 4.0953055e-05, No Iterations 3
GAMG:  Solving for p, Initial residual = 0.0065227666, Final residual = 4.6988164e-05, No Iterations 3
time step continuity errors : sum local = 3.817193e-06, global = 6.4687208e-08, cumulative = 0.00023078595
ExecutionTime = 15.391874 s  ClockTime = 15 s

Time = 119s

smoothSolver:  Solving for Ux, Initial residual = 0.0012136596, Final residual = 4.2432704e-05, No Iterations 3
smoothSolver:  Solving for Uy, Initial residual = 0.0051781143, Final residual = 0.00018135308, No Iterations 3
smoothSolver:  Solving for Uz, Initial residual = 0.0011405952, Final residual = 4.0681031e-05, No Iterations 3
GAMG:  Solving for p, Initial residual = 0.0064835497, Final residual = 4.6820011e-05, No Iterations 3
time step continuity errors : sum local = 3.806553e-06, global = 6.5112578e-08, cumulative = 0.00023085106
ExecutionTime = 15.515241 s  ClockTime = 15 s

Time = 120s

smoothSolver:  Solving for Ux, Initial residual = 0.0012139045, Final residual = 4.2451106e-05, No Iterations 3
smoothSolver:  Solving for Uy, Initial residual = 0.0051363028, Final residual = 0.00017987781, No Iterations 3
smoothSolver:  Solving for Uz, Initial residual = 0.0011326038, Final residual = 4.0413957e-05, No Iterations 3
GAMG:  Solving for p, Initial residual = 0.0064458144, Final residual = 4.6657808e-05, No Iterations 3
time step continuity errors : sum local = 3.796364e-06, global = 6.6419532e-08, cumulative = 0.00023091748
ExecutionTime = 15.639123 s  ClockTime = 16 s

Time = 121s

smoothSolver:  Solving for Ux, Initial residual = 0.0012141867, Final residual = 4.2470584e-05, No Iterations 3
smoothSolver:  Solving for Uy, Initial residual = 0.0050955329, Final residual = 0.0001784294, No Iterations 3
smoothSolver:  Solving for Uz, Initial residual = 0.0011247433, Final residual = 4.0151656e-05, No Iterations 3
GAMG:  Solving for p, Initial residual = 0.0064101927, Final residual = 4.6486582e-05, No Iterations 3
time step continuity errors : sum local = 3.7854231e-06, global = 6.69265e-08, cumulative = 0.0002309844
ExecutionTime = 15.761576 s  ClockTime = 16 s

Time = 122s

smoothSolver:  Solving for Ux, Initial residual = 0.0012144978, Final residual = 4.249148e-05, No Iterations 3
smoothSolver:  Solving for Uy, Initial residual = 0.0050555847, Final residual = 0.00017700574, No Iterations 3
smoothSolver:  Solving for Uz, Initial residual = 0.0011170166, Final residual = 3.9893751e-05, No Iterations 3
GAMG:  Solving for p, Initial residual = 0.0063769203, Final residual = 4.6314012e-05, No Iterations 3
time step continuity errors : sum local = 3.7743511e-06, global = 6.7167115e-08, cumulative = 0.00023105157
ExecutionTime = 15.884804 s  ClockTime = 16 s

Time = 123s

smoothSolver:  Solving for Ux, Initial residual = 0.0012148455, Final residual = 4.2512303e-05, No Iterations 3
smoothSolver:  Solving for Uy, Initial residual = 0.0050163155, Final residual = 0.00017559139, No Iterations 3
smoothSolver:  Solving for Uz, Initial residual = 0.0011094174, Final residual = 3.9639775e-05, No Iterations 3
GAMG:  Solving for p, Initial residual = 0.0063445061, Final residual = 4.6156502e-05, No Iterations 3
time step continuity errors : sum local = 3.7644696e-06, global = 6.6922375e-08, cumulative = 0.00023111849
ExecutionTime = 16.00856 s  ClockTime = 16 s

Time = 124s

smoothSolver:  Solving for Ux, Initial residual = 0.0012152337, Final residual = 4.2532931e-05, No Iterations 3
smoothSolver:  Solving for Uy, Initial residual = 0.0049778723, Final residual = 0.00017418553, No Iterations 3
smoothSolver:  Solving for Uz, Initial residual = 0.001101939, Final residual = 3.9389804e-05, No Iterations 3
GAMG:  Solving for p, Initial residual = 0.0063108878, Final residual = 4.5975229e-05, No Iterations 3
time step continuity errors : sum local = 3.7526186e-06, global = 6.6290424e-08, cumulative = 0.00023118478
ExecutionTime = 16.131916 s  ClockTime = 16 s

Time = 125s

smoothSolver:  Solving for Ux, Initial residual = 0.0012156377, Final residual = 4.2553531e-05, No Iterations 3
smoothSolver:  Solving for Uy, Initial residual = 0.0049400718, Final residual = 0.00017279015, No Iterations 3
smoothSolver:  Solving for Uz, Initial residual = 0.0010945793, Final residual = 3.9143652e-05, No Iterations 3
GAMG:  Solving for p, Initial residual = 0.006276901, Final residual = 4.5769758e-05, No Iterations 3
time step continuity errors : sum local = 3.738762e-06, global = 6.5435652e-08, cumulative = 0.00023125022
ExecutionTime = 16.256453 s  ClockTime = 16 s

Time = 126s

smoothSolver:  Solving for Ux, Initial residual = 0.001216051, Final residual = 4.2573539e-05, No Iterations 3
smoothSolver:  Solving for Uy, Initial residual = 0.0049026734, Final residual = 0.00017141494, No Iterations 3
smoothSolver:  Solving for Uz, Initial residual = 0.0010873317, Final residual = 3.8900903e-05, No Iterations 3
GAMG:  Solving for p, Initial residual = 0.0062437008, Final residual = 4.5558814e-05, No Iterations 3
time step continuity errors : sum local = 3.7244213e-06, global = 6.4569457e-08, cumulative = 0.00023131479
ExecutionTime = 16.379922 s  ClockTime = 16 s

Time = 127s

smoothSolver:  Solving for Ux, Initial residual = 0.001216479, Final residual = 4.2592933e-05, No Iterations 3
smoothSolver:  Solving for Uy, Initial residual = 0.0048655961, Final residual = 0.00017005137, No Iterations 3
smoothSolver:  Solving for Uz, Initial residual = 0.0010801947, Final residual = 3.8661387e-05, No Iterations 3
GAMG:  Solving for p, Initial residual = 0.0062117915, Final residual = 4.5363875e-05, No Iterations 3
time step continuity errors : sum local = 3.7113524e-06, global = 6.3867925e-08, cumulative = 0.00023137866
ExecutionTime = 16.504087 s  ClockTime = 16 s

Time = 128s

smoothSolver:  Solving for Ux, Initial residual = 0.0012169002, Final residual = 4.261146e-05, No Iterations 3
smoothSolver:  Solving for Uy, Initial residual = 0.0048289791, Final residual = 0.00016871747, No Iterations 3
smoothSolver:  Solving for Uz, Initial residual = 0.0010731663, Final residual = 3.8425049e-05, No Iterations 3
GAMG:  Solving for p, Initial residual = 0.0061812761, Final residual = 4.5191425e-05, No Iterations 3
time step continuity errors : sum local = 3.7000897e-06, global = 6.3362212e-08, cumulative = 0.00023144202
ExecutionTime = 16.627475 s  ClockTime = 17 s

Time = 129s

smoothSolver:  Solving for Ux, Initial residual = 0.0012173304, Final residual = 4.2629703e-05, No Iterations 3
smoothSolver:  Solving for Uy, Initial residual = 0.0047930496, Final residual = 0.00016740968, No Iterations 3
smoothSolver:  Solving for Uz, Initial residual = 0.0010662441, Final residual = 3.819194e-05, No Iterations 3
GAMG:  Solving for p, Initial residual = 0.0061520833, Final residual = 4.5034073e-05, No Iterations 3
time step continuity errors : sum local = 3.6900332e-06, global = 6.3066592e-08, cumulative = 0.00023150509
ExecutionTime = 16.751297 s  ClockTime = 17 s

Time = 130s

smoothSolver:  Solving for Ux, Initial residual = 0.0012177642, Final residual = 4.2647046e-05, No Iterations 3
smoothSolver:  Solving for Uy, Initial residual = 0.004757826, Final residual = 0.00016612202, No Iterations 3
smoothSolver:  Solving for Uz, Initial residual = 0.0010594259, Final residual = 3.7962049e-05, No Iterations 3
[...]
GAMG:  Solving for p, Initial residual = 1.6649863e-05, Final residual = 1.6482794e-07, No Iterations 2
time step continuity errors : sum local = 1.5717832e-08, global = -1.7896695e-09, cumulative = 0.00024451706
ExecutionTime = 117.04932 s  ClockTime = 118 s

Time = 954s

smoothSolver:  Solving for Ux, Initial residual = 4.0807644e-06, Final residual = 1.588445e-07, No Iterations 3
smoothSolver:  Solving for Uy, Initial residual = 1.148617e-05, Final residual = 4.3238184e-07, No Iterations 3
smoothSolver:  Solving for Uz, Initial residual = 1.3917277e-06, Final residual = 5.1329705e-08, No Iterations 3
GAMG:  Solving for p, Initial residual = 1.6388826e-05, Final residual = 7.9936307e-08, No Iterations 3
time step continuity errors : sum local = 7.6226338e-09, global = -7.8669063e-10, cumulative = 0.00024451627
ExecutionTime = 117.17336 s  ClockTime = 118 s

Time = 955s

smoothSolver:  Solving for Ux, Initial residual = 4.0122502e-06, Final residual = 1.5620244e-07, No Iterations 3
smoothSolver:  Solving for Uy, Initial residual = 1.1383793e-05, Final residual = 4.2852993e-07, No Iterations 3
smoothSolver:  Solving for Uz, Initial residual = 1.3667411e-06, Final residual = 5.0371619e-08, No Iterations 3
GAMG:  Solving for p, Initial residual = 1.6151564e-05, Final residual = 7.7797955e-08, No Iterations 3
time step continuity errors : sum local = 7.4187093e-09, global = -7.0237643e-10, cumulative = 0.00024451557
ExecutionTime = 117.29561 s  ClockTime = 119 s

Time = 956s

smoothSolver:  Solving for Ux, Initial residual = 3.944495e-06, Final residual = 1.535929e-07, No Iterations 3
smoothSolver:  Solving for Uy, Initial residual = 1.1278888e-05, Final residual = 4.2456798e-07, No Iterations 3
smoothSolver:  Solving for Uz, Initial residual = 1.3420775e-06, Final residual = 4.9428686e-08, No Iterations 3
GAMG:  Solving for p, Initial residual = 1.5915523e-05, Final residual = 7.329965e-08, No Iterations 3
time step continuity errors : sum local = 6.9897441e-09, global = -5.9133691e-10, cumulative = 0.00024451498
ExecutionTime = 117.42106 s  ClockTime = 119 s

Time = 957s

smoothSolver:  Solving for Ux, Initial residual = 3.8769672e-06, Final residual = 1.5099921e-07, No Iterations 3
smoothSolver:  Solving for Uy, Initial residual = 1.116769e-05, Final residual = 4.2034176e-07, No Iterations 3
smoothSolver:  Solving for Uz, Initial residual = 1.3177944e-06, Final residual = 4.8503106e-08, No Iterations 3
GAMG:  Solving for p, Initial residual = 1.5677382e-05, Final residual = 1.5652792e-07, No Iterations 2
time step continuity errors : sum local = 1.4926239e-08, global = -1.3118521e-09, cumulative = 0.00024451366
ExecutionTime = 117.53848 s  ClockTime = 119 s

Time = 958s

smoothSolver:  Solving for Ux, Initial residual = 3.8071052e-06, Final residual = 1.4833328e-07, No Iterations 3
smoothSolver:  Solving for Uy, Initial residual = 1.1034515e-05, Final residual = 4.1534144e-07, No Iterations 3
smoothSolver:  Solving for Uz, Initial residual = 1.2938642e-06, Final residual = 4.7599821e-08, No Iterations 3
GAMG:  Solving for p, Initial residual = 1.5426368e-05, Final residual = 7.5575465e-08, No Iterations 3
time step continuity errors : sum local = 7.2067364e-09, global = -4.5550511e-10, cumulative = 0.00024451321
ExecutionTime = 117.66335 s  ClockTime = 119 s

Time = 959s

smoothSolver:  Solving for Ux, Initial residual = 3.742609e-06, Final residual = 1.4584819e-07, No Iterations 3
smoothSolver:  Solving for Uy, Initial residual = 1.0928223e-05, Final residual = 4.1126123e-07, No Iterations 3
smoothSolver:  Solving for Uz, Initial residual = 1.2703253e-06, Final residual = 4.6701583e-08, No Iterations 3
GAMG:  Solving for p, Initial residual = 1.5198207e-05, Final residual = 7.3522998e-08, No Iterations 3
time step continuity errors : sum local = 7.0110039e-09, global = -3.6292694e-10, cumulative = 0.00024451285
ExecutionTime = 117.78642 s  ClockTime = 119 s

Time = 960s

smoothSolver:  Solving for Ux, Initial residual = 3.6787478e-06, Final residual = 1.4339162e-07, No Iterations 3
smoothSolver:  Solving for Uy, Initial residual = 1.0819196e-05, Final residual = 4.0707119e-07, No Iterations 3
smoothSolver:  Solving for Uz, Initial residual = 1.247129e-06, Final residual = 4.581908e-08, No Iterations 3
GAMG:  Solving for p, Initial residual = 1.4971384e-05, Final residual = 6.9015842e-08, No Iterations 3
time step continuity errors : sum local = 6.5811985e-09, global = -2.6053882e-10, cumulative = 0.00024451258
ExecutionTime = 117.91166 s  ClockTime = 119 s

Time = 961s

smoothSolver:  Solving for Ux, Initial residual = 3.6150572e-06, Final residual = 1.4094091e-07, No Iterations 3
smoothSolver:  Solving for Uy, Initial residual = 1.0704172e-05, Final residual = 4.0265412e-07, No Iterations 3
smoothSolver:  Solving for Uz, Initial residual = 1.2243717e-06, Final residual = 4.4955711e-08, No Iterations 3
GAMG:  Solving for p, Initial residual = 1.4742217e-05, Final residual = 1.4730601e-07, No Iterations 2
time step continuity errors : sum local = 1.404675e-08, global = -8.0872869e-10, cumulative = 0.00024451178
ExecutionTime = 118.02978 s  ClockTime = 119 s

Time = 962s

smoothSolver:  Solving for Ux, Initial residual = 3.5487766e-06, Final residual = 1.384124e-07, No Iterations 3
smoothSolver:  Solving for Uy, Initial residual = 1.0568343e-05, Final residual = 3.9750158e-07, No Iterations 3
smoothSolver:  Solving for Uz, Initial residual = 1.2020695e-06, Final residual = 4.411594e-08, No Iterations 3
GAMG:  Solving for p, Initial residual = 1.4499959e-05, Final residual = 7.0936169e-08, No Iterations 3
time step continuity errors : sum local = 6.7642927e-09, global = -1.2208078e-10, cumulative = 0.00024451165
ExecutionTime = 118.1545 s  ClockTime = 119 s

Time = 963s

smoothSolver:  Solving for Ux, Initial residual = 3.4877043e-06, Final residual = 1.3605854e-07, No Iterations 3
smoothSolver:  Solving for Uy, Initial residual = 1.0458497e-05, Final residual = 3.9325199e-07, No Iterations 3
smoothSolver:  Solving for Uz, Initial residual = 1.1800951e-06, Final residual = 4.3283526e-08, No Iterations 3
GAMG:  Solving for p, Initial residual = 1.4279355e-05, Final residual = 6.8783068e-08, No Iterations 3
time step continuity errors : sum local = 6.5589666e-09, global = -5.1470006e-11, cumulative = 0.0002445116
ExecutionTime = 118.27767 s  ClockTime = 120 s

Time = 964s

smoothSolver:  Solving for Ux, Initial residual = 3.4274222e-06, Final residual = 1.337295e-07, No Iterations 3
smoothSolver:  Solving for Uy, Initial residual = 1.0346451e-05, Final residual = 3.8891477e-07, No Iterations 3
smoothSolver:  Solving for Uz, Initial residual = 1.158464e-06, Final residual = 4.2467315e-08, No Iterations 3
GAMG:  Solving for p, Initial residual = 1.4059925e-05, Final residual = 6.446707e-08, No Iterations 3
time step continuity errors : sum local = 6.1473938e-09, global = 1.625807e-11, cumulative = 0.00024451162
ExecutionTime = 118.40446 s  ClockTime = 120 s

Time = 965s

smoothSolver:  Solving for Ux, Initial residual = 3.3673933e-06, Final residual = 1.3140804e-07, No Iterations 3
smoothSolver:  Solving for Uy, Initial residual = 1.0228677e-05, Final residual = 3.843873e-07, No Iterations 3
smoothSolver:  Solving for Uz, Initial residual = 1.1372173e-06, Final residual = 4.166964e-08, No Iterations 3
GAMG:  Solving for p, Initial residual = 1.3838727e-05, Final residual = 1.3792137e-07, No Iterations 2
time step continuity errors : sum local = 1.3151761e-08, global = -3.9602283e-10, cumulative = 0.00024451122
ExecutionTime = 118.52089 s  ClockTime = 120 s

Time = 966s

smoothSolver:  Solving for Ux, Initial residual = 3.3049296e-06, Final residual = 1.2900063e-07, No Iterations 3
smoothSolver:  Solving for Uy, Initial residual = 1.0091283e-05, Final residual = 3.7917672e-07, No Iterations 3
smoothSolver:  Solving for Uz, Initial residual = 1.1164382e-06, Final residual = 4.0897791e-08, No Iterations 3
GAMG:  Solving for p, Initial residual = 1.360602e-05, Final residual = 6.6628736e-08, No Iterations 3
time step continuity errors : sum local = 6.3535028e-09, global = 1.2373335e-10, cumulative = 0.00024451135
ExecutionTime = 118.6447 s  ClockTime = 120 s

Time = 967s

smoothSolver:  Solving for Ux, Initial residual = 3.2476693e-06, Final residual = 1.267774e-07, No Iterations 3
smoothSolver:  Solving for Uy, Initial residual = 9.9792426e-06, Final residual = 3.748605e-07, No Iterations 3
smoothSolver:  Solving for Uz, Initial residual = 1.0959659e-06, Final residual = 4.0133744e-08, No Iterations 3
GAMG:  Solving for p, Initial residual = 1.3393574e-05, Final residual = 6.4685752e-08, No Iterations 3
time step continuity errors : sum local = 6.1682157e-09, global = 1.7211039e-10, cumulative = 0.00024451152
ExecutionTime = 118.76759 s  ClockTime = 120 s

Time = 968s

smoothSolver:  Solving for Ux, Initial residual = 3.1912143e-06, Final residual = 1.2458681e-07, No Iterations 3
smoothSolver:  Solving for Uy, Initial residual = 9.8655798e-06, Final residual = 3.7045669e-07, No Iterations 3
smoothSolver:  Solving for Uz, Initial residual = 1.0758922e-06, Final residual = 3.9386478e-08, No Iterations 3
GAMG:  Solving for p, Initial residual = 1.3182326e-05, Final residual = 6.0500203e-08, No Iterations 3
time step continuity errors : sum local = 5.7690861e-09, global = 2.1120658e-10, cumulative = 0.00024451173
ExecutionTime = 118.88973 s  ClockTime = 120 s

Time = 969s

smoothSolver:  Solving for Ux, Initial residual = 3.1349747e-06, Final residual = 1.2240428e-07, No Iterations 3
smoothSolver:  Solving for Uy, Initial residual = 9.7475356e-06, Final residual = 3.658649e-07, No Iterations 3
smoothSolver:  Solving for Uz, Initial residual = 1.05625e-06, Final residual = 3.8656997e-08, No Iterations 3
GAMG:  Solving for p, Initial residual = 1.2969349e-05, Final residual = 1.2864156e-07, No Iterations 2
time step continuity errors : sum local = 1.2266786e-08, global = -5.4248724e-11, cumulative = 0.00024451168
ExecutionTime = 119.00698 s  ClockTime = 120 s

Time = 970s

smoothSolver:  Solving for Ux, Initial residual = 3.0761551e-06, Final residual = 1.2013585e-07, No Iterations 3
smoothSolver:  Solving for Uy, Initial residual = 9.6115481e-06, Final residual = 3.6063353e-07, No Iterations 3
smoothSolver:  Solving for Uz, Initial residual = 1.0371694e-06, Final residual = 3.7951184e-08, No Iterations 3
GAMG:  Solving for p, Initial residual = 1.2744829e-05, Final residual = 6.2498229e-08, No Iterations 3
time step continuity errors : sum local = 5.9595923e-09, global = 2.9315118e-10, cumulative = 0.00024451197
ExecutionTime = 119.13187 s  ClockTime = 120 s

Time = 971s

smoothSolver:  Solving for Ux, Initial residual = 3.0224437e-06, Final residual = 1.1804021e-07, No Iterations 3
smoothSolver:  Solving for Uy, Initial residual = 9.5004432e-06, Final residual = 3.5626492e-07, No Iterations 3
smoothSolver:  Solving for Uz, Initial residual = 1.0183838e-06, Final residual = 3.7251372e-08, No Iterations 3
GAMG:  Solving for p, Initial residual = 1.2539988e-05, Final residual = 6.0687612e-08, No Iterations 3
time step continuity errors : sum local = 5.7869293e-09, global = 3.1853683e-10, cumulative = 0.00024451229
ExecutionTime = 119.25476 s  ClockTime = 121 s

Time = 972s

smoothSolver:  Solving for Ux, Initial residual = 2.9693922e-06, Final residual = 1.1596696e-07, No Iterations 3
smoothSolver:  Solving for Uy, Initial residual = 9.3879396e-06, Final residual = 3.5182001e-07, No Iterations 3
smoothSolver:  Solving for Uz, Initial residual = 9.9995347e-07, Final residual = 3.6569034e-08, No Iterations 3
GAMG:  Solving for p, Initial residual = 1.2336403e-05, Final residual = 5.6724752e-08, No Iterations 3
time step continuity errors : sum local = 5.409038e-09, global = 3.2935523e-10, cumulative = 0.00024451262
ExecutionTime = 119.37861 s  ClockTime = 121 s

Time = 973s

smoothSolver:  Solving for Ux, Initial residual = 2.9166192e-06, Final residual = 1.138996e-07, No Iterations 3
smoothSolver:  Solving for Uy, Initial residual = 9.270489e-06, Final residual = 3.4721067e-07, No Iterations 3
smoothSolver:  Solving for Uz, Initial residual = 9.8192324e-07, Final residual = 3.5906941e-08, No Iterations 3
GAMG:  Solving for p, Initial residual = 1.213207e-05, Final residual = 1.1980028e-07, No Iterations 2
time step continuity errors : sum local = 1.1423642e-08, global = 2.1172323e-10, cumulative = 0.00024451283
ExecutionTime = 119.49509 s  ClockTime = 121 s

Time = 974s

smoothSolver:  Solving for Ux, Initial residual = 2.8614391e-06, Final residual = 1.1173731e-07, No Iterations 3
smoothSolver:  Solving for Uy, Initial residual = 9.1357407e-06, Final residual = 3.4197554e-07, No Iterations 3
smoothSolver:  Solving for Uz, Initial residual = 9.6441718e-07, Final residual = 3.526728e-08, No Iterations 3
GAMG:  Solving for p, Initial residual = 1.1917392e-05, Final residual = 5.8924518e-08, No Iterations 3
time step continuity errors : sum local = 5.6187824e-09, global = 3.7927064e-10, cumulative = 0.00024451321
ExecutionTime = 119.62004 s  ClockTime = 121 s

Time = 975s

smoothSolver:  Solving for Ux, Initial residual = 2.8114244e-06, Final residual = 1.0975224e-07, No Iterations 3
smoothSolver:  Solving for Uy, Initial residual = 9.0243266e-06, Final residual = 3.375766e-07, No Iterations 3
smoothSolver:  Solving for Uz, Initial residual = 9.4714072e-07, Final residual = 3.4635501e-08, No Iterations 3
GAMG:  Solving for p, Initial residual = 1.1722526e-05, Final residual = 5.7187756e-08, No Iterations 3
time step continuity errors : sum local = 5.453164e-09, global = 3.8683359e-10, cumulative = 0.00024451359
ExecutionTime = 119.74471 s  ClockTime = 121 s

Time = 976s

smoothSolver:  Solving for Ux, Initial residual = 2.7620893e-06, Final residual = 1.0778679e-07, No Iterations 3
smoothSolver:  Solving for Uy, Initial residual = 8.9120673e-06, Final residual = 3.3314745e-07, No Iterations 3
smoothSolver:  Solving for Uz, Initial residual = 9.3028261e-07, Final residual = 3.4021028e-08, No Iterations 3
GAMG:  Solving for p, Initial residual = 1.1530224e-05, Final residual = 5.3326233e-08, No Iterations 3
time step continuity errors : sum local = 5.0849391e-09, global = 3.8103275e-10, cumulative = 0.00024451398
ExecutionTime = 119.8694 s  ClockTime = 121 s

Time = 977s

smoothSolver:  Solving for Ux, Initial residual = 2.7128416e-06, Final residual = 1.0582366e-07, No Iterations 3
smoothSolver:  Solving for Uy, Initial residual = 8.7956762e-06, Final residual = 3.2858548e-07, No Iterations 3
smoothSolver:  Solving for Uz, Initial residual = 9.1386779e-07, Final residual = 3.3422991e-08, No Iterations 3
GAMG:  Solving for p, Initial residual = 1.1337181e-05, Final residual = 1.1178933e-07, No Iterations 2
time step continuity errors : sum local = 1.065969e-08, global = 4.0621228e-10, cumulative = 0.00024451438
ExecutionTime = 119.98662 s  ClockTime = 121 s

Time = 978s

smoothSolver:  Solving for Ux, Initial residual = 2.6611923e-06, Final residual = 1.0376807e-07, No Iterations 3
smoothSolver:  Solving for Uy, Initial residual = 8.6631695e-06, Final residual = 3.2345571e-07, No Iterations 3
smoothSolver:  Solving for Uz, Initial residual = 8.9803711e-07, Final residual = 3.2847598e-08, No Iterations 3
GAMG:  Solving for p, Initial residual = 1.1135271e-05, Final residual = 5.5627322e-08, No Iterations 3
time step continuity errors : sum local = 5.3043462e-09, global = 4.1353067e-10, cumulative = 0.0002445148
ExecutionTime = 120.11026 s  ClockTime = 121 s

Time = 979s

smoothSolver:  Solving for Ux, Initial residual = 2.6145412e-06, Final residual = 1.0188819e-07, No Iterations 3
smoothSolver:  Solving for Uy, Initial residual = 8.5532303e-06, Final residual = 3.1914003e-07, No Iterations 3
smoothSolver:  Solving for Uz, Initial residual = 8.8235894e-07, Final residual = 3.2273733e-08, No Iterations 3
GAMG:  Solving for p, Initial residual = 1.0952425e-05, Final residual = 5.4040383e-08, No Iterations 3
time step continuity errors : sum local = 5.1530163e-09, global = 4.1243903e-10, cumulative = 0.00024451521
ExecutionTime = 120.23349 s  ClockTime = 122 s

Time = 980s

smoothSolver:  Solving for Ux, Initial residual = 2.5685206e-06, Final residual = 1.0003131e-07, No Iterations 3
smoothSolver:  Solving for Uy, Initial residual = 8.4426027e-06, Final residual = 3.1483723e-07, No Iterations 3
smoothSolver:  Solving for Uz, Initial residual = 8.6704967e-07, Final residual = 3.1713224e-08, No Iterations 3
GAMG:  Solving for p, Initial residual = 1.077209e-05, Final residual = 5.033439e-08, No Iterations 3
time step continuity errors : sum local = 4.7996251e-09, global = 3.9910136e-10, cumulative = 0.00024451561
ExecutionTime = 120.35701 s  ClockTime = 122 s

Time = 981s

smoothSolver:  Solving for Ux, Initial residual = 2.5225814e-06, Final residual = 9.8176278e-08, No Iterations 3
smoothSolver:  Solving for Uy, Initial residual = 8.3289426e-06, Final residual = 3.1043456e-07, No Iterations 3
smoothSolver:  Solving for Uz, Initial residual = 8.5214368e-07, Final residual = 3.1167487e-08, No Iterations 3
GAMG:  Solving for p, Initial residual = 1.0590464e-05, Final residual = 1.0443735e-07, No Iterations 2
time step continuity errors : sum local = 9.9585888e-09, global = 5.5704142e-10, cumulative = 0.00024451616
ExecutionTime = 120.47386 s  ClockTime = 122 s

Time = 982s

smoothSolver:  Solving for Ux, Initial residual = 2.4743318e-06, Final residual = 9.6230992e-08, No Iterations 3
smoothSolver:  Solving for Uy, Initial residual = 8.2014029e-06, Final residual = 3.0555056e-07, No Iterations 3
smoothSolver:  Solving for Uz, Initial residual = 8.3776276e-07, Final residual = 3.0644769e-08, No Iterations 3
GAMG:  Solving for p, Initial residual = 1.0400202e-05, Final residual = 5.2527907e-08, No Iterations 3
time step continuity errors : sum local = 5.0087757e-09, global = 4.2188308e-10, cumulative = 0.00024451659
ExecutionTime = 120.59824 s  ClockTime = 122 s

Time = 983s

smoothSolver:  Solving for Ux, Initial residual = 2.4308964e-06, Final residual = 9.4462747e-08, No Iterations 3
smoothSolver:  Solving for Uy, Initial residual = 8.0955501e-06, Final residual = 3.0145361e-07, No Iterations 3
smoothSolver:  Solving for Uz, Initial residual = 8.2349081e-07, Final residual = 3.0124101e-08, No Iterations 3
GAMG:  Solving for p, Initial residual = 1.0227602e-05, Final residual = 5.1021284e-08, No Iterations 3
time step continuity errors : sum local = 4.8651061e-09, global = 4.1625489e-10, cumulative = 0.000244517
ExecutionTime = 120.72141 s  ClockTime = 122 s

Time = 984s

smoothSolver:  Solving for Ux, Initial residual = 2.3880702e-06, Final residual = 9.2717267e-08, No Iterations 3
smoothSolver:  Solving for Uy, Initial residual = 7.9889211e-06, Final residual = 2.9737663e-07, No Iterations 3
smoothSolver:  Solving for Uz, Initial residual = 8.0956581e-07, Final residual = 2.961707e-08, No Iterations 3
GAMG:  Solving for p, Initial residual = 1.0056901e-05, Final residual = 4.7482315e-08, No Iterations 3
time step continuity errors : sum local = 4.5276441e-09, global = 3.9948506e-10, cumulative = 0.0002445174
ExecutionTime = 120.84446 s  ClockTime = 122 s

Time = 985s

smoothSolver:  Solving for Ux, Initial residual = 2.345389e-06, Final residual = 9.0970903e-08, No Iterations 3
smoothSolver:  Solving for Uy, Initial residual = 7.8796898e-06, Final residual = 2.9322917e-07, No Iterations 3
smoothSolver:  Solving for Uz, Initial residual = 7.9599907e-07, Final residual = 2.9124793e-08, No Iterations 3
GAMG:  Solving for p, Initial residual = 9.8855355e-06, Final residual = 9.7736428e-08, No Iterations 2
time step continuity errors : sum local = 9.3195802e-09, global = 6.6431633e-10, cumulative = 0.00024451807
ExecutionTime = 120.9612 s  ClockTime = 122 s


SIMPLE solution converged in 985 iterations

End

Finalising parallel run
