/*---------------------------------------------------------------------------*\
  =========                 |
  \\      /  F ield         | OpenFOAM: The Open Source CFD Toolbox
   \\    /   O peration     | Website:  https://openfoam.org
    \\  /    A nd           | Version:  11
     \\/     M anipulation  |
\*---------------------------------------------------------------------------*/
Build  : 11-e1fc8c682ae6
Exec   : foamRun -solver incompressibleFluid -parallel
Date   : Feb 08 2026
Time   : 18:43:23
Host   : "ip-172-31-18-192"
PID    : 129532
I/O    : uncollated
Case   : /home/ubuntu/cases/bifurcation_angle45_750_ascii/Re300
nProcs : 16
Slaves : 
15
(
"ip-172-31-18-192.129533"
"ip-172-31-18-192.129534"
"ip-172-31-18-192.129535"
"ip-172-31-18-192.129536"
"ip-172-31-18-192.129537"
"ip-172-31-18-192.129538"
"ip-172-31-18-192.129539"
"ip-172-31-18-192.129540"
"ip-172-31-18-192.129541"
"ip-172-31-18-192.129542"
"ip-172-31-18-192.129543"
"ip-172-31-18-192.129544"
"ip-172-31-18-192.129545"
"ip-172-31-18-192.129546"
"ip-172-31-18-192.129547"
)

Pstream initialised with:
    floatTransfer      : false
    nProcsSimpleSum    : 0
    commsType          : nonBlocking
    polling iterations : 0
sigFpe : Enabling floating point exception trapping (FOAM_SIGFPE).
fileModificationChecking : Monitoring run-time modified files using timeStampMaster (fileModificationSkew 10)
allowSystemOperations : Allowing user-supplied system call operations

// * * * * * * * * * * * * * * * * * * * * * * * * * * * * * * * * * * * * * //
Create time

Create mesh for time = 0

Selecting solver incompressibleFluid
Selecting viscosity model Newtonian
Selecting turbulence model type laminar
Selecting laminar stress model Stokes
No MRF models present


SIMPLE: Convergence criteria found
        p: tolerance 1e-05
        U: tolerance 1e-05


SIMPLE: Operating solver in steady-state mode with 1 outer corrector
SIMPLE: Operating solver in SIMPLE mode



Starting time loop

wallShearStress wallShearStress:
    processing wall patches: 
        wall-fluid_domain

Time = 1s

smoothSolver:  Solving for Ux, Initial residual = 1, Final residual = 0.049226498, No Iterations 1
smoothSolver:  Solving for Uy, Initial residual = 1, Final residual = 0.04568327, No Iterations 1
smoothSolver:  Solving for Uz, Initial residual = 1, Final residual = 0.014044355, No Iterations 1
GAMG:  Solving for p, Initial residual = 1, Final residual = 0.0086351121, No Iterations 10
time step continuity errors : sum local = 0.00021079464, global = -3.146815e-06, cumulative = -3.146815e-06
ExecutionTime = 0.678709 s  ClockTime = 1 s

Time = 2s

smoothSolver:  Solving for Ux, Initial residual = 0.25504494, Final residual = 0.015092858, No Iterations 2
smoothSolver:  Solving for Uy, Initial residual = 0.35280807, Final residual = 0.016914318, No Iterations 2
smoothSolver:  Solving for Uz, Initial residual = 0.27025533, Final residual = 0.018791863, No Iterations 2
GAMG:  Solving for p, Initial residual = 0.35765522, Final residual = 0.0029149784, No Iterations 6
time step continuity errors : sum local = 0.005657915, global = -0.00018833968, cumulative = -0.00019148649
ExecutionTime = 0.869035 s  ClockTime = 1 s

Time = 3s

smoothSolver:  Solving for Ux, Initial residual = 0.22944616, Final residual = 0.0073257857, No Iterations 3
smoothSolver:  Solving for Uy, Initial residual = 0.1384804, Final residual = 0.0084630286, No Iterations 2
smoothSolver:  Solving for Uz, Initial residual = 0.5506106, Final residual = 0.019717234, No Iterations 3
GAMG:  Solving for p, Initial residual = 0.14654847, Final residual = 0.00077041659, No Iterations 3
time step continuity errors : sum local = 0.0079261625, global = 9.2660913e-05, cumulative = -9.8825577e-05
ExecutionTime = 1.03301 s  ClockTime = 1 s

Time = 4s

smoothSolver:  Solving for Ux, Initial residual = 0.1499003, Final residual = 0.0050626797, No Iterations 3
smoothSolver:  Solving for Uy, Initial residual = 0.073439424, Final residual = 0.0045299391, No Iterations 2
smoothSolver:  Solving for Uz, Initial residual = 0.3920512, Final residual = 0.014056653, No Iterations 3
GAMG:  Solving for p, Initial residual = 0.10201857, Final residual = 0.00084782232, No Iterations 5
time step continuity errors : sum local = 0.0089405013, global = -1.5096398e-05, cumulative = -0.00011392198
ExecutionTime = 1.214517 s  ClockTime = 1 s

Time = 5s

smoothSolver:  Solving for Ux, Initial residual = 0.083294315, Final residual = 0.0080855834, No Iterations 2
smoothSolver:  Solving for Uy, Initial residual = 0.17744549, Final residual = 0.012302842, No Iterations 2
smoothSolver:  Solving for Uz, Initial residual = 0.15635999, Final residual = 0.0056157027, No Iterations 3
GAMG:  Solving for p, Initial residual = 0.078462044, Final residual = 0.00072779872, No Iterations 6
time step continuity errors : sum local = 0.0039902054, global = 0.00019150565, cumulative = 7.7583676e-05
ExecutionTime = 1.404484 s  ClockTime = 1 s

Time = 6s

smoothSolver:  Solving for Ux, Initial residual = 0.080537424, Final residual = 0.0065541024, No Iterations 2
smoothSolver:  Solving for Uy, Initial residual = 0.40475093, Final residual = 0.027392409, No Iterations 2
smoothSolver:  Solving for Uz, Initial residual = 0.065267974, Final residual = 0.0022724956, No Iterations 3
GAMG:  Solving for p, Initial residual = 0.43232477, Final residual = 0.002016951, No Iterations 5
time step continuity errors : sum local = 0.0057294118, global = -0.00012228748, cumulative = -4.4703802e-05
ExecutionTime = 1.585554 s  ClockTime = 2 s

Time = 7s

smoothSolver:  Solving for Ux, Initial residual = 0.12734338, Final residual = 0.012124582, No Iterations 2
smoothSolver:  Solving for Uy, Initial residual = 0.26053688, Final residual = 0.017036398, No Iterations 2
smoothSolver:  Solving for Uz, Initial residual = 0.22167524, Final residual = 0.0079585598, No Iterations 3
GAMG:  Solving for p, Initial residual = 0.25185326, Final residual = 0.002365596, No Iterations 3
time step continuity errors : sum local = 0.013448122, global = -0.00024300991, cumulative = -0.00028771371
ExecutionTime = 1.746732 s  ClockTime = 2 s

Time = 8s

smoothSolver:  Solving for Ux, Initial residual = 0.11328593, Final residual = 0.0036276816, No Iterations 3
smoothSolver:  Solving for Uy, Initial residual = 0.13846703, Final residual = 0.0093917316, No Iterations 2
smoothSolver:  Solving for Uz, Initial residual = 0.24434574, Final residual = 0.0087724663, No Iterations 3
GAMG:  Solving for p, Initial residual = 0.19607054, Final residual = 0.0010114379, No Iterations 5
time step continuity errors : sum local = 0.0050023645, global = 2.102925e-05, cumulative = -0.00026668446
ExecutionTime = 1.930052 s  ClockTime = 2 s

Time = 9s

smoothSolver:  Solving for Ux, Initial residual = 0.06705582, Final residual = 0.0063104858, No Iterations 2
smoothSolver:  Solving for Uy, Initial residual = 0.24545612, Final residual = 0.01949708, No Iterations 2
smoothSolver:  Solving for Uz, Initial residual = 0.089914574, Final residual = 0.0031921016, No Iterations 3
GAMG:  Solving for p, Initial residual = 0.19721113, Final residual = 0.00092366294, No Iterations 6
time step continuity errors : sum local = 0.0018461797, global = -6.2104252e-05, cumulative = -0.00032878872
ExecutionTime = 2.121491 s  ClockTime = 2 s

Time = 10s

smoothSolver:  Solving for Ux, Initial residual = 0.0715419, Final residual = 0.0063723408, No Iterations 2
smoothSolver:  Solving for Uy, Initial residual = 0.40303659, Final residual = 0.029721953, No Iterations 2
smoothSolver:  Solving for Uz, Initial residual = 0.074057432, Final residual = 0.0026549335, No Iterations 3
GAMG:  Solving for p, Initial residual = 0.30275369, Final residual = 0.0028913355, No Iterations 4
time step continuity errors : sum local = 0.0052895871, global = -8.7724832e-05, cumulative = -0.00041651355
ExecutionTime = 2.290636 s  ClockTime = 2 s

Time = 11s

smoothSolver:  Solving for Ux, Initial residual = 0.073070803, Final residual = 0.0070900739, No Iterations 2
smoothSolver:  Solving for Uy, Initial residual = 0.24074631, Final residual = 0.016559414, No Iterations 2
smoothSolver:  Solving for Uz, Initial residual = 0.11970208, Final residual = 0.0043099663, No Iterations 3
GAMG:  Solving for p, Initial residual = 0.21435313, Final residual = 0.001416615, No Iterations 4
time step continuity errors : sum local = 0.0039793457, global = 2.968314e-06, cumulative = -0.00041354523
ExecutionTime = 2.460383 s  ClockTime = 3 s

Time = 12s

smoothSolver:  Solving for Ux, Initial residual = 0.047232131, Final residual = 0.0015407233, No Iterations 3
smoothSolver:  Solving for Uy, Initial residual = 0.15157807, Final residual = 0.011899063, No Iterations 2
smoothSolver:  Solving for Uz, Initial residual = 0.083285717, Final residual = 0.0029972333, No Iterations 3
GAMG:  Solving for p, Initial residual = 0.169453, Final residual = 0.0011808047, No Iterations 5
time step continuity errors : sum local = 0.0025276969, global = -1.6129276e-05, cumulative = -0.00042967451
ExecutionTime = 2.641045 s  ClockTime = 3 s

Time = 13s

smoothSolver:  Solving for Ux, Initial residual = 0.026523194, Final residual = 0.0023963013, No Iterations 2
smoothSolver:  Solving for Uy, Initial residual = 0.30893631, Final residual = 0.025978739, No Iterations 2
smoothSolver:  Solving for Uz, Initial residual = 0.019321539, Final residual = 0.00064031714, No Iterations 3
GAMG:  Solving for p, Initial residual = 0.26609545, Final residual = 0.0011102324, No Iterations 6
time step continuity errors : sum local = 0.00079395901, global = 2.7978653e-05, cumulative = -0.00040169586
ExecutionTime = 2.832326 s  ClockTime = 3 s

Time = 14s

smoothSolver:  Solving for Ux, Initial residual = 0.033894746, Final residual = 0.0031425189, No Iterations 2
smoothSolver:  Solving for Uy, Initial residual = 0.34389341, Final residual = 0.026809551, No Iterations 2
smoothSolver:  Solving for Uz, Initial residual = 0.038988131, Final residual = 0.0013973126, No Iterations 3
GAMG:  Solving for p, Initial residual = 0.28692117, Final residual = 0.0020589088, No Iterations 4
time step continuity errors : sum local = 0.0021515961, global = 2.3650987e-05, cumulative = -0.00037804487
ExecutionTime = 3.002218 s  ClockTime = 3 s

Time = 15s

smoothSolver:  Solving for Ux, Initial residual = 0.034595396, Final residual = 0.0033963041, No Iterations 2
smoothSolver:  Solving for Uy, Initial residual = 0.19077074, Final residual = 0.013790114, No Iterations 2
smoothSolver:  Solving for Uz, Initial residual = 0.056583585, Final residual = 0.0020298881, No Iterations 3
GAMG:  Solving for p, Initial residual = 0.21458194, Final residual = 0.0017205398, No Iterations 4
time step continuity errors : sum local = 0.0022609973, global = -1.5431922e-05, cumulative = -0.00039347679
ExecutionTime = 3.171508 s  ClockTime = 3 s

Time = 16s

smoothSolver:  Solving for Ux, Initial residual = 0.023566278, Final residual = 0.0007632806, No Iterations 3
smoothSolver:  Solving for Uy, Initial residual = 0.14920887, Final residual = 0.01275877, No Iterations 2
smoothSolver:  Solving for Uz, Initial residual = 0.037070582, Final residual = 0.00132397, No Iterations 3
GAMG:  Solving for p, Initial residual = 0.1718109, Final residual = 0.0013951795, No Iterations 5
time step continuity errors : sum local = 0.0012296297, global = 7.7655758e-06, cumulative = -0.00038571122
ExecutionTime = 3.353298 s  ClockTime = 3 s

Time = 17s

smoothSolver:  Solving for Ux, Initial residual = 0.014866154, Final residual = 0.0012961788, No Iterations 2
smoothSolver:  Solving for Uy, Initial residual = 0.28632911, Final residual = 0.024484755, No Iterations 2
smoothSolver:  Solving for Uz, Initial residual = 0.0077626405, Final residual = 0.00071305991, No Iterations 2
GAMG:  Solving for p, Initial residual = 0.51397562, Final residual = 0.0043904932, No Iterations 5
time step continuity errors : sum local = 0.00086869334, global = 4.2417245e-06, cumulative = -0.00038146949
ExecutionTime = 3.530665 s  ClockTime = 4 s

Time = 18s

smoothSolver:  Solving for Ux, Initial residual = 0.018870625, Final residual = 0.0018120933, No Iterations 2
smoothSolver:  Solving for Uy, Initial residual = 0.26095457, Final residual = 0.020792703, No Iterations 2
smoothSolver:  Solving for Uz, Initial residual = 0.023490057, Final residual = 0.00085319456, No Iterations 3
GAMG:  Solving for p, Initial residual = 0.23119117, Final residual = 0.001363404, No Iterations 4
time step continuity errors : sum local = 0.0008740364, global = -1.1352198e-05, cumulative = -0.00039282169
ExecutionTime = 3.699923 s  ClockTime = 4 s

Time = 19s

smoothSolver:  Solving for Ux, Initial residual = 0.016188334, Final residual = 0.00051778717, No Iterations 3
smoothSolver:  Solving for Uy, Initial residual = 0.14646801, Final residual = 0.011268729, No Iterations 2
smoothSolver:  Solving for Uz, Initial residual = 0.025829127, Final residual = 0.00093704893, No Iterations 3
GAMG:  Solving for p, Initial residual = 0.18073869, Final residual = 0.0017707168, No Iterations 4
time step continuity errors : sum local = 0.0012168645, global = 1.5596546e-05, cumulative = -0.00037722514
ExecutionTime = 3.872817 s  ClockTime = 4 s

Time = 20s

smoothSolver:  Solving for Ux, Initial residual = 0.010471107, Final residual = 0.00034608711, No Iterations 3
smoothSolver:  Solving for Uy, Initial residual = 0.14127083, Final residual = 0.012841695, No Iterations 2
smoothSolver:  Solving for Uz, Initial residual = 0.013699366, Final residual = 0.00049664688, No Iterations 3
GAMG:  Solving for p, Initial residual = 0.13780071, Final residual = 0.001305984, No Iterations 5
time step continuity errors : sum local = 0.00057730256, global = -5.7023332e-06, cumulative = -0.00038292748
ExecutionTime = 4.0559 s  ClockTime = 4 s

Time = 21s

smoothSolver:  Solving for Ux, Initial residual = 0.0077986023, Final residual = 0.00070099073, No Iterations 2
smoothSolver:  Solving for Uy, Initial residual = 0.20492132, Final residual = 0.017897455, No Iterations 2
smoothSolver:  Solving for Uz, Initial residual = 0.0045696051, Final residual = 0.00044341009, No Iterations 2
GAMG:  Solving for p, Initial residual = 0.3498622, Final residual = 0.0022443768, No Iterations 5
time step continuity errors : sum local = 0.00035674254, global = -1.7536703e-06, cumulative = -0.00038468115
ExecutionTime = 4.241356 s  ClockTime = 4 s

Time = 22s

smoothSolver:  Solving for Ux, Initial residual = 0.0089454851, Final residual = 0.00085370704, No Iterations 2
smoothSolver:  Solving for Uy, Initial residual = 0.16155483, Final residual = 0.013202317, No Iterations 2
smoothSolver:  Solving for Uz, Initial residual = 0.011734681, Final residual = 0.00041578217, No Iterations 3
GAMG:  Solving for p, Initial residual = 0.21694706, Final residual = 0.0011937813, No Iterations 4
time step continuity errors : sum local = 0.00040001427, global = -3.2551524e-06, cumulative = -0.0003879363
ExecutionTime = 4.412125 s  ClockTime = 5 s

Time = 23s

smoothSolver:  Solving for Ux, Initial residual = 0.0071425519, Final residual = 0.00070960456, No Iterations 2
smoothSolver:  Solving for Uy, Initial residual = 0.091455768, Final residual = 0.0074232892, No Iterations 2
smoothSolver:  Solving for Uz, Initial residual = 0.011448528, Final residual = 0.00040523356, No Iterations 3
GAMG:  Solving for p, Initial residual = 0.17057829, Final residual = 0.00082918354, No Iterations 5
time step continuity errors : sum local = 0.00026766539, global = 1.460831e-06, cumulative = -0.00038647547
ExecutionTime = 4.591663 s  ClockTime = 5 s

Time = 24s

smoothSolver:  Solving for Ux, Initial residual = 0.0047676418, Final residual = 0.00046731301, No Iterations 2
smoothSolver:  Solving for Uy, Initial residual = 0.10221853, Final residual = 0.0094560019, No Iterations 2
smoothSolver:  Solving for Uz, Initial residual = 0.0048246767, Final residual = 0.00016302035, No Iterations 3
GAMG:  Solving for p, Initial residual = 0.14335483, Final residual = 0.0014228428, No Iterations 5
time step continuity errors : sum local = 0.00026252001, global = 2.0796986e-06, cumulative = -0.00038439577
ExecutionTime = 4.77145 s  ClockTime = 5 s

Time = 25s

smoothSolver:  Solving for Ux, Initial residual = 0.0048815024, Final residual = 0.00047275388, No Iterations 2
smoothSolver:  Solving for Uy, Initial residual = 0.12479411, Final residual = 0.011080928, No Iterations 2
smoothSolver:  Solving for Uz, Initial residual = 0.0041773269, Final residual = 0.00014648023, No Iterations 3
GAMG:  Solving for p, Initial residual = 0.15569313, Final residual = 0.00072726168, No Iterations 5
time step continuity errors : sum local = 0.00014128921, global = -3.9845814e-07, cumulative = -0.00038479423
ExecutionTime = 4.952967 s  ClockTime = 5 s

Time = 26s

smoothSolver:  Solving for Ux, Initial residual = 0.005017275, Final residual = 0.00016053367, No Iterations 3
smoothSolver:  Solving for Uy, Initial residual = 0.093097321, Final residual = 0.0080093465, No Iterations 2
smoothSolver:  Solving for Uz, Initial residual = 0.0066204518, Final residual = 0.00024190298, No Iterations 3
GAMG:  Solving for p, Initial residual = 0.13199324, Final residual = 0.0009802813, No Iterations 4
time step continuity errors : sum local = 0.0002567669, global = 4.7608888e-07, cumulative = -0.00038431814
ExecutionTime = 5.123716 s  ClockTime = 5 s

Time = 27s

smoothSolver:  Solving for Ux, Initial residual = 0.0039486706, Final residual = 0.00013340023, No Iterations 3
smoothSolver:  Solving for Uy, Initial residual = 0.059395358, Final residual = 0.0054831094, No Iterations 2
smoothSolver:  Solving for Uz, Initial residual = 0.0055976922, Final residual = 0.00020375058, No Iterations 3
GAMG:  Solving for p, Initial residual = 0.096884009, Final residual = 0.00056682976, No Iterations 5
time step continuity errors : sum local = 0.00013768272, global = -1.2928521e-06, cumulative = -0.00038561099
ExecutionTime = 5.304429 s  ClockTime = 5 s

Time = 28s

smoothSolver:  Solving for Ux, Initial residual = 0.0032615017, Final residual = 0.00010656387, No Iterations 3
smoothSolver:  Solving for Uy, Initial residual = 0.066760257, Final residual = 0.0063886933, No Iterations 2
smoothSolver:  Solving for Uz, Initial residual = 0.0031542301, Final residual = 0.00010989198, No Iterations 3
GAMG:  Solving for p, Initial residual = 0.074250728, Final residual = 0.00067767676, No Iterations 5
time step continuity errors : sum local = 0.00011768202, global = -1.1640126e-06, cumulative = -0.000386775
ExecutionTime = 5.486357 s  ClockTime = 6 s

Time = 29s

smoothSolver:  Solving for Ux, Initial residual = 0.0028825304, Final residual = 0.00028058916, No Iterations 2
smoothSolver:  Solving for Uy, Initial residual = 0.06896473, Final residual = 0.0063276279, No Iterations 2
smoothSolver:  Solving for Uz, Initial residual = 0.0025115145, Final residual = 8.216513e-05, No Iterations 3
GAMG:  Solving for p, Initial residual = 0.13490148, Final residual = 0.0011687064, No Iterations 4
time step continuity errors : sum local = 0.00014682857, global = 1.3490984e-06, cumulative = -0.00038542591
ExecutionTime = 5.657066 s  ClockTime = 6 s

Time = 30s

smoothSolver:  Solving for Ux, Initial residual = 0.0024833593, Final residual = 0.00024310605, No Iterations 2
smoothSolver:  Solving for Uy, Initial residual = 0.050465148, Final residual = 0.0046273322, No Iterations 2
smoothSolver:  Solving for Uz, Initial residual = 0.0030214579, Final residual = 0.00010250289, No Iterations 3
GAMG:  Solving for p, Initial residual = 0.11678681, Final residual = 0.00091344335, No Iterations 4
time step continuity errors : sum local = 0.00013357908, global = -3.3010993e-07, cumulative = -0.00038575602
ExecutionTime = 5.826371 s  ClockTime = 6 s

Time = 31s

smoothSolver:  Solving for Ux, Initial residual = 0.0021544093, Final residual = 6.880198e-05, No Iterations 3
smoothSolver:  Solving for Uy, Initial residual = 0.039378454, Final residual = 0.0038986269, No Iterations 2
smoothSolver:  Solving for Uz, Initial residual = 0.002393596, Final residual = 7.9960227e-05, No Iterations 3
GAMG:  Solving for p, Initial residual = 0.086091825, Final residual = 0.00050680417, No Iterations 5
time step continuity errors : sum local = 6.5898921e-05, global = 2.5541895e-07, cumulative = -0.0003855006
ExecutionTime = 6.007039 s  ClockTime = 6 s

Time = 32s

smoothSolver:  Solving for Ux, Initial residual = 0.0023088231, Final residual = 7.5693305e-05, No Iterations 3
smoothSolver:  Solving for Uy, Initial residual = 0.044364138, Final residual = 0.0043990994, No Iterations 2
smoothSolver:  Solving for Uz, Initial residual = 0.0022446354, Final residual = 7.6702021e-05, No Iterations 3
GAMG:  Solving for p, Initial residual = 0.056138415, Final residual = 0.0003633133, No Iterations 5
time step continuity errors : sum local = 4.9877287e-05, global = 7.8664199e-08, cumulative = -0.00038542193
ExecutionTime = 6.189091 s  ClockTime = 6 s

Time = 33s

smoothSolver:  Solving for Ux, Initial residual = 0.0024051069, Final residual = 8.0156329e-05, No Iterations 3
smoothSolver:  Solving for Uy, Initial residual = 0.042998871, Final residual = 0.0042046672, No Iterations 2
smoothSolver:  Solving for Uz, Initial residual = 0.002718745, Final residual = 9.5786985e-05, No Iterations 3
GAMG:  Solving for p, Initial residual = 0.056839077, Final residual = 0.00039828604, No Iterations 4
time step continuity errors : sum local = 6.5463607e-05, global = -4.9370502e-07, cumulative = -0.00038591564
ExecutionTime = 6.362155 s  ClockTime = 7 s

Time = 34s

smoothSolver:  Solving for Ux, Initial residual = 0.0022346687, Final residual = 7.6334384e-05, No Iterations 3
smoothSolver:  Solving for Uy, Initial residual = 0.034540624, Final residual = 0.001096663, No Iterations 3
smoothSolver:  Solving for Uz, Initial residual = 0.0028147471, Final residual = 9.982093e-05, No Iterations 3
GAMG:  Solving for p, Initial residual = 0.04984829, Final residual = 0.00041808677, No Iterations 4
time step continuity errors : sum local = 7.1637167e-05, global = 7.2717391e-07, cumulative = -0.00038518846
ExecutionTime = 6.534656 s  ClockTime = 7 s

Time = 35s

smoothSolver:  Solving for Ux, Initial residual = 0.0020564242, Final residual = 7.08184e-05, No Iterations 3
smoothSolver:  Solving for Uy, Initial residual = 0.030442285, Final residual = 0.001007843, No Iterations 3
smoothSolver:  Solving for Uz, Initial residual = 0.0025204513, Final residual = 8.855823e-05, No Iterations 3
GAMG:  Solving for p, Initial residual = 0.036889361, Final residual = 0.00020326706, No Iterations 5
time step continuity errors : sum local = 3.2891508e-05, global = -3.714565e-07, cumulative = -0.00038555992
ExecutionTime = 6.717442 s  ClockTime = 7 s

Time = 36s

smoothSolver:  Solving for Ux, Initial residual = 0.0019490845, Final residual = 6.590982e-05, No Iterations 3
smoothSolver:  Solving for Uy, Initial residual = 0.030715096, Final residual = 0.0009980378, No Iterations 3
smoothSolver:  Solving for Uz, Initial residual = 0.0021708894, Final residual = 7.5117251e-05, No Iterations 3
GAMG:  Solving for p, Initial residual = 0.037616899, Final residual = 0.00015861545, No Iterations 5
time step continuity errors : sum local = 2.3184886e-05, global = -1.9544684e-07, cumulative = -0.00038575537
ExecutionTime = 6.899865 s  ClockTime = 7 s

Time = 37s

smoothSolver:  Solving for Ux, Initial residual = 0.0018352799, Final residual = 6.1473297e-05, No Iterations 3
smoothSolver:  Solving for Uy, Initial residual = 0.028638868, Final residual = 0.00092766586, No Iterations 3
smoothSolver:  Solving for Uz, Initial residual = 0.0019967287, Final residual = 6.839628e-05, No Iterations 3
GAMG:  Solving for p, Initial residual = 0.045346345, Final residual = 0.00026528632, No Iterations 4
time step continuity errors : sum local = 3.6069196e-05, global = 3.4776582e-07, cumulative = -0.0003854076
ExecutionTime = 7.073567 s  ClockTime = 7 s

Time = 38s

smoothSolver:  Solving for Ux, Initial residual = 0.0017520243, Final residual = 5.9245628e-05, No Iterations 3
smoothSolver:  Solving for Uy, Initial residual = 0.025738229, Final residual = 0.0008595479, No Iterations 3
smoothSolver:  Solving for Uz, Initial residual = 0.0019566488, Final residual = 6.7084274e-05, No Iterations 3
GAMG:  Solving for p, Initial residual = 0.040684055, Final residual = 0.00029252577, No Iterations 4
time step continuity errors : sum local = 3.9651401e-05, global = -1.0598634e-07, cumulative = -0.00038551359
ExecutionTime = 7.249963 s  ClockTime = 7 s

Time = 39s

smoothSolver:  Solving for Ux, Initial residual = 0.0017465777, Final residual = 5.9632218e-05, No Iterations 3
smoothSolver:  Solving for Uy, Initial residual = 0.025237033, Final residual = 0.0008544725, No Iterations 3
smoothSolver:  Solving for Uz, Initial residual = 0.0019916082, Final residual = 6.8784093e-05, No Iterations 3
GAMG:  Solving for p, Initial residual = 0.031538509, Final residual = 0.00027461621, No Iterations 4
time step continuity errors : sum local = 3.8931528e-05, global = -1.9899528e-07, cumulative = -0.00038571258
ExecutionTime = 7.424335 s  ClockTime = 8 s

Time = 40s

smoothSolver:  Solving for Ux, Initial residual = 0.001759069, Final residual = 6.038337e-05, No Iterations 3
smoothSolver:  Solving for Uy, Initial residual = 0.025248909, Final residual = 0.00085132047, No Iterations 3
smoothSolver:  Solving for Uz, Initial residual = 0.0020696326, Final residual = 7.2118597e-05, No Iterations 3
GAMG:  Solving for p, Initial residual = 0.028566622, Final residual = 0.00019601999, No Iterations 4
time step continuity errors : sum local = 2.9336003e-05, global = -5.6261803e-08, cumulative = -0.00038576884
ExecutionTime = 7.59829 s  ClockTime = 8 s

Time = 41s

smoothSolver:  Solving for Ux, Initial residual = 0.0017331305, Final residual = 5.9848991e-05, No Iterations 3
smoothSolver:  Solving for Uy, Initial residual = 0.024007278, Final residual = 0.00081384983, No Iterations 3
smoothSolver:  Solving for Uz, Initial residual = 0.0021110172, Final residual = 7.3952155e-05, No Iterations 3
GAMG:  Solving for p, Initial residual = 0.027893975, Final residual = 0.00015302338, No Iterations 4
time step continuity errors : sum local = 2.3642012e-05, global = 2.7945406e-07, cumulative = -0.00038548939
ExecutionTime = 7.772026 s  ClockTime = 8 s

Time = 42s

smoothSolver:  Solving for Ux, Initial residual = 0.0016848752, Final residual = 5.8414142e-05, No Iterations 3
smoothSolver:  Solving for Uy, Initial residual = 0.022519243, Final residual = 0.00077165374, No Iterations 3
smoothSolver:  Solving for Uz, Initial residual = 0.0020789283, Final residual = 7.2872794e-05, No Iterations 3
GAMG:  Solving for p, Initial residual = 0.025836806, Final residual = 0.00018415187, No Iterations 4
time step continuity errors : sum local = 2.8551649e-05, global = 2.3837534e-07, cumulative = -0.00038525102
ExecutionTime = 7.945894 s  ClockTime = 8 s

Time = 43s

smoothSolver:  Solving for Ux, Initial residual = 0.0016389767, Final residual = 5.672979e-05, No Iterations 3
smoothSolver:  Solving for Uy, Initial residual = 0.021685833, Final residual = 0.00074474702, No Iterations 3
smoothSolver:  Solving for Uz, Initial residual = 0.0019973043, Final residual = 6.9828588e-05, No Iterations 3
GAMG:  Solving for p, Initial residual = 0.024516412, Final residual = 0.00017886812, No Iterations 4
time step continuity errors : sum local = 2.7283271e-05, global = 2.8042048e-07, cumulative = -0.00038497059
ExecutionTime = 8.120086 s  ClockTime = 8 s

Time = 44s

smoothSolver:  Solving for Ux, Initial residual = 0.0015996134, Final residual = 5.5185227e-05, No Iterations 3
smoothSolver:  Solving for Uy, Initial residual = 0.021106112, Final residual = 0.00072384485, No Iterations 3
smoothSolver:  Solving for Uz, Initial residual = 0.0019186619, Final residual = 6.68808e-05, No Iterations 3
GAMG:  Solving for p, Initial residual = 0.025155638, Final residual = 0.00015774526, No Iterations 4
time step continuity errors : sum local = 2.3615757e-05, global = 1.8461961e-07, cumulative = -0.00038478598
ExecutionTime = 8.294523 s  ClockTime = 8 s

Time = 45s

smoothSolver:  Solving for Ux, Initial residual = 0.0015669491, Final residual = 5.4024943e-05, No Iterations 3
smoothSolver:  Solving for Uy, Initial residual = 0.020472624, Final residual = 0.00070480143, No Iterations 3
smoothSolver:  Solving for Uz, Initial residual = 0.0018712748, Final residual = 6.5163915e-05, No Iterations 3
GAMG:  Solving for p, Initial residual = 0.025227201, Final residual = 0.00019277237, No Iterations 3
time step continuity errors : sum local = 2.8649405e-05, global = 4.2948185e-08, cumulative = -0.00038474303
ExecutionTime = 8.458527 s  ClockTime = 9 s

Time = 46s

smoothSolver:  Solving for Ux, Initial residual = 0.0015446102, Final residual = 5.3332603e-05, No Iterations 3
smoothSolver:  Solving for Uy, Initial residual = 0.019973276, Final residual = 0.00069086348, No Iterations 3
smoothSolver:  Solving for Uz, Initial residual = 0.001850087, Final residual = 6.4494616e-05, No Iterations 3
GAMG:  Solving for p, Initial residual = 0.024052346, Final residual = 0.00013918694, No Iterations 4
time step continuity errors : sum local = 2.079766e-05, global = -8.9720445e-08, cumulative = -0.00038483275
ExecutionTime = 8.632318 s  ClockTime = 9 s

Time = 47s

smoothSolver:  Solving for Ux, Initial residual = 0.0015313779, Final residual = 5.2969228e-05, No Iterations 3
smoothSolver:  Solving for Uy, Initial residual = 0.019655616, Final residual = 0.00068107871, No Iterations 3
smoothSolver:  Solving for Uz, Initial residual = 0.0018480724, Final residual = 6.4579311e-05, No Iterations 3
GAMG:  Solving for p, Initial residual = 0.022764753, Final residual = 0.00013329814, No Iterations 4
time step continuity errors : sum local = 2.0208799e-05, global = -9.2626414e-08, cumulative = -0.00038492537
ExecutionTime = 8.805417 s  ClockTime = 9 s

Time = 48s

smoothSolver:  Solving for Ux, Initial residual = 0.0015173228, Final residual = 5.25672e-05, No Iterations 3
smoothSolver:  Solving for Uy, Initial residual = 0.01925059, Final residual = 0.00066731526, No Iterations 3
smoothSolver:  Solving for Uz, Initial residual = 0.0018478405, Final residual = 6.4729134e-05, No Iterations 3
GAMG:  Solving for p, Initial residual = 0.022055382, Final residual = 0.00010644829, No Iterations 4
time step continuity errors : sum local = 1.6372274e-05, global = -6.0448209e-08, cumulative = -0.00038498582
ExecutionTime = 8.978801 s  ClockTime = 9 s

Time = 49s

smoothSolver:  Solving for Ux, Initial residual = 0.0014984829, Final residual = 5.1971051e-05, No Iterations 3
smoothSolver:  Solving for Uy, Initial residual = 0.018709061, Final residual = 0.00064923369, No Iterations 3
smoothSolver:  Solving for Uz, Initial residual = 0.0018356438, Final residual = 6.4395038e-05, No Iterations 3
GAMG:  Solving for p, Initial residual = 0.021531137, Final residual = 0.00019709718, No Iterations 3
time step continuity errors : sum local = 3.0569483e-05, global = 5.7245128e-07, cumulative = -0.00038441337
ExecutionTime = 9.141992 s  ClockTime = 9 s

Time = 50s

smoothSolver:  Solving for Ux, Initial residual = 0.001478195, Final residual = 5.128225e-05, No Iterations 3
smoothSolver:  Solving for Uy, Initial residual = 0.018174042, Final residual = 0.00063109369, No Iterations 3
smoothSolver:  Solving for Uz, Initial residual = 0.0018125849, Final residual = 6.362479e-05, No Iterations 3
GAMG:  Solving for p, Initial residual = 0.021057883, Final residual = 0.00013825438, No Iterations 4
time step continuity errors : sum local = 2.1517319e-05, global = 2.2796001e-07, cumulative = -0.00038418541
ExecutionTime = 9.317269 s  ClockTime = 9 s

Time = 51s

smoothSolver:  Solving for Ux, Initial residual = 0.0014577049, Final residual = 5.052437e-05, No Iterations 3
smoothSolver:  Solving for Uy, Initial residual = 0.01773914, Final residual = 0.00061581521, No Iterations 3
smoothSolver:  Solving for Uz, Initial residual = 0.0017788803, Final residual = 6.241046e-05, No Iterations 3
GAMG:  Solving for p, Initial residual = 0.020892146, Final residual = 0.00013756392, No Iterations 4
time step continuity errors : sum local = 2.1366204e-05, global = 2.2638554e-07, cumulative = -0.00038395903
ExecutionTime = 9.488843 s  ClockTime = 10 s

Time = 52s

smoothSolver:  Solving for Ux, Initial residual = 0.0014390683, Final residual = 4.9831218e-05, No Iterations 3
smoothSolver:  Solving for Uy, Initial residual = 0.01736593, Final residual = 0.00060262019, No Iterations 3
smoothSolver:  Solving for Uz, Initial residual = 0.0017466146, Final residual = 6.125276e-05, No Iterations 3
GAMG:  Solving for p, Initial residual = 0.020864405, Final residual = 0.00013087782, No Iterations 4
time step continuity errors : sum local = 2.0286287e-05, global = 2.1290052e-07, cumulative = -0.00038374612
ExecutionTime = 9.66136 s  ClockTime = 10 s

Time = 53s

smoothSolver:  Solving for Ux, Initial residual = 0.001422954, Final residual = 4.9257925e-05, No Iterations 3
smoothSolver:  Solving for Uy, Initial residual = 0.017018629, Final residual = 0.00059075633, No Iterations 3
smoothSolver:  Solving for Uz, Initial residual = 0.001721574, Final residual = 6.038998e-05, No Iterations 3
GAMG:  Solving for p, Initial residual = 0.020621644, Final residual = 0.00013872574, No Iterations 3
time step continuity errors : sum local = 2.1526946e-05, global = 3.4829971e-07, cumulative = -0.00038339783
ExecutionTime = 9.826335 s  ClockTime = 10 s

Time = 54s

smoothSolver:  Solving for Ux, Initial residual = 0.0014088717, Final residual = 4.8782128e-05, No Iterations 3
smoothSolver:  Solving for Uy, Initial residual = 0.016674682, Final residual = 0.00057906282, No Iterations 3
smoothSolver:  Solving for Uz, Initial residual = 0.0017028734, Final residual = 5.9787609e-05, No Iterations 3
GAMG:  Solving for p, Initial residual = 0.020187913, Final residual = 0.00015907391, No Iterations 3
time step continuity errors : sum local = 2.4790971e-05, global = 5.7588569e-08, cumulative = -0.00038334024
ExecutionTime = 9.99066 s  ClockTime = 10 s

Time = 55s

smoothSolver:  Solving for Ux, Initial residual = 0.001396648, Final residual = 4.8365576e-05, No Iterations 3
smoothSolver:  Solving for Uy, Initial residual = 0.01635099, Final residual = 0.00056776946, No Iterations 3
smoothSolver:  Solving for Uz, Initial residual = 0.001686377, Final residual = 5.9257274e-05, No Iterations 3
GAMG:  Solving for p, Initial residual = 0.019820755, Final residual = 0.00019036661, No Iterations 3
time step continuity errors : sum local = 2.9817049e-05, global = 2.6113838e-08, cumulative = -0.00038331412
ExecutionTime = 10.153382 s  ClockTime = 10 s

Time = 56s

smoothSolver:  Solving for Ux, Initial residual = 0.001385858, Final residual = 4.7998944e-05, No Iterations 3
smoothSolver:  Solving for Uy, Initial residual = 0.016027868, Final residual = 0.00055633503, No Iterations 3
smoothSolver:  Solving for Uz, Initial residual = 0.0016715793, Final residual = 5.8788785e-05, No Iterations 3
GAMG:  Solving for p, Initial residual = 0.019474698, Final residual = 0.00018466597, No Iterations 3
time step continuity errors : sum local = 2.9083752e-05, global = 1.3690768e-07, cumulative = -0.00038317721
ExecutionTime = 10.317893 s  ClockTime = 11 s

Time = 57s

smoothSolver:  Solving for Ux, Initial residual = 0.0013762601, Final residual = 4.7663354e-05, No Iterations 3
smoothSolver:  Solving for Uy, Initial residual = 0.015697304, Final residual = 0.00054459901, No Iterations 3
smoothSolver:  Solving for Uz, Initial residual = 0.0016567423, Final residual = 5.8309594e-05, No Iterations 3
GAMG:  Solving for p, Initial residual = 0.01915111, Final residual = 0.00016646883, No Iterations 3
time step continuity errors : sum local = 2.6351681e-05, global = 3.9289098e-07, cumulative = -0.00038278432
ExecutionTime = 10.484041 s  ClockTime = 11 s

Time = 58s

smoothSolver:  Solving for Ux, Initial residual = 0.001367416, Final residual = 4.7349106e-05, No Iterations 3
smoothSolver:  Solving for Uy, Initial residual = 0.015366826, Final residual = 0.00053298844, No Iterations 3
smoothSolver:  Solving for Uz, Initial residual = 0.001640943, Final residual = 5.7785407e-05, No Iterations 3
GAMG:  Solving for p, Initial residual = 0.018881434, Final residual = 0.00018415829, No Iterations 3
time step continuity errors : sum local = 2.9276074e-05, global = 6.2775018e-07, cumulative = -0.00038215657
ExecutionTime = 10.648529 s  ClockTime = 11 s

Time = 59s

smoothSolver:  Solving for Ux, Initial residual = 0.0013590112, Final residual = 4.7044148e-05, No Iterations 3
smoothSolver:  Solving for Uy, Initial residual = 0.01505441, Final residual = 0.00052197625, No Iterations 3
smoothSolver:  Solving for Uz, Initial residual = 0.0016239757, Final residual = 5.7210952e-05, No Iterations 3
GAMG:  Solving for p, Initial residual = 0.018670448, Final residual = 0.00012811497, No Iterations 4
time step continuity errors : sum local = 2.0436146e-05, global = 2.7692482e-07, cumulative = -0.00038187965
ExecutionTime = 10.821976 s  ClockTime = 11 s

Time = 60s

smoothSolver:  Solving for Ux, Initial residual = 0.0013514167, Final residual = 4.6753096e-05, No Iterations 3
smoothSolver:  Solving for Uy, Initial residual = 0.014769701, Final residual = 0.00051198081, No Iterations 3
smoothSolver:  Solving for Uz, Initial residual = 0.0016047924, Final residual = 5.6535958e-05, No Iterations 3
GAMG:  Solving for p, Initial residual = 0.018558373, Final residual = 0.00012249268, No Iterations 4
time step continuity errors : sum local = 1.9573204e-05, global = 2.3093061e-07, cumulative = -0.00038164872
ExecutionTime = 10.996548 s  ClockTime = 11 s

Time = 61s

smoothSolver:  Solving for Ux, Initial residual = 0.0013438184, Final residual = 4.6462362e-05, No Iterations 3
smoothSolver:  Solving for Uy, Initial residual = 0.014485758, Final residual = 0.00050204478, No Iterations 3
smoothSolver:  Solving for Uz, Initial residual = 0.0015854394, Final residual = 5.5853766e-05, No Iterations 3
GAMG:  Solving for p, Initial residual = 0.018384454, Final residual = 0.00015596757, No Iterations 3
time step continuity errors : sum local = 2.4961082e-05, global = 4.6458121e-07, cumulative = -0.00038118414
ExecutionTime = 11.160374 s  ClockTime = 11 s

Time = 62s

smoothSolver:  Solving for Ux, Initial residual = 0.0013356447, Final residual = 4.6165293e-05, No Iterations 3
smoothSolver:  Solving for Uy, Initial residual = 0.014183073, Final residual = 0.00049162488, No Iterations 3
smoothSolver:  Solving for Uz, Initial residual = 0.0015683357, Final residual = 5.5268854e-05, No Iterations 3
GAMG:  Solving for p, Initial residual = 0.018121587, Final residual = 0.00014979568, No Iterations 3
time step continuity errors : sum local = 2.4042143e-05, global = 3.6972895e-07, cumulative = -0.00038081441
ExecutionTime = 11.325136 s  ClockTime = 12 s

Time = 63s

smoothSolver:  Solving for Ux, Initial residual = 0.0013287916, Final residual = 4.5920038e-05, No Iterations 3
smoothSolver:  Solving for Uy, Initial residual = 0.01388544, Final residual = 0.00048135922, No Iterations 3
smoothSolver:  Solving for Uz, Initial residual = 0.0015516829, Final residual = 5.4697345e-05, No Iterations 3
GAMG:  Solving for p, Initial residual = 0.017893686, Final residual = 0.00015478753, No Iterations 3
time step continuity errors : sum local = 2.491916e-05, global = 3.6022e-07, cumulative = -0.00038045419
ExecutionTime = 11.489928 s  ClockTime = 12 s

Time = 64s

smoothSolver:  Solving for Ux, Initial residual = 0.0013234793, Final residual = 4.5727607e-05, No Iterations 3
smoothSolver:  Solving for Uy, Initial residual = 0.013599781, Final residual = 0.00047163331, No Iterations 3
smoothSolver:  Solving for Uz, Initial residual = 0.001535467, Final residual = 5.4135153e-05, No Iterations 3
GAMG:  Solving for p, Initial residual = 0.017726139, Final residual = 0.00016408196, No Iterations 3
time step continuity errors : sum local = 2.6498358e-05, global = 4.0600626e-07, cumulative = -0.00038004818
ExecutionTime = 11.653179 s  ClockTime = 12 s

Time = 65s

smoothSolver:  Solving for Ux, Initial residual = 0.0013191993, Final residual = 4.5572013e-05, No Iterations 3
smoothSolver:  Solving for Uy, Initial residual = 0.013331124, Final residual = 0.00046261019, No Iterations 3
smoothSolver:  Solving for Uz, Initial residual = 0.0015199343, Final residual = 5.3592617e-05, No Iterations 3
GAMG:  Solving for p, Initial residual = 0.017610557, Final residual = 0.00017543985, No Iterations 3
time step continuity errors : sum local = 2.842155e-05, global = 4.8398499e-07, cumulative = -0.0003795642
ExecutionTime = 11.817031 s  ClockTime = 12 s

Time = 66s

smoothSolver:  Solving for Ux, Initial residual = 0.0013153647, Final residual = 4.5431543e-05, No Iterations 3
smoothSolver:  Solving for Uy, Initial residual = 0.013082289, Final residual = 0.00045426155, No Iterations 3
smoothSolver:  Solving for Uz, Initial residual = 0.0015052577, Final residual = 5.3081539e-05, No Iterations 3
GAMG:  Solving for p, Initial residual = 0.017502681, Final residual = 0.00010922595, No Iterations 4
time step continuity errors : sum local = 1.7749061e-05, global = 2.3624289e-07, cumulative = -0.00037932795
ExecutionTime = 11.9911 s  ClockTime = 12 s

Time = 67s

smoothSolver:  Solving for Ux, Initial residual = 0.0013121608, Final residual = 4.5317843e-05, No Iterations 3
smoothSolver:  Solving for Uy, Initial residual = 0.012857539, Final residual = 0.0004467083, No Iterations 3
smoothSolver:  Solving for Uz, Initial residual = 0.0014914287, Final residual = 5.259841e-05, No Iterations 3
GAMG:  Solving for p, Initial residual = 0.017398819, Final residual = 0.00015648338, No Iterations 3
time step continuity errors : sum local = 2.5496455e-05, global = 5.2995848e-07, cumulative = -0.000378798
ExecutionTime = 12.155446 s  ClockTime = 12 s

Time = 68s

smoothSolver:  Solving for Ux, Initial residual = 0.0013069879, Final residual = 4.5144951e-05, No Iterations 3
smoothSolver:  Solving for Uy, Initial residual = 0.012618523, Final residual = 0.00043875033, No Iterations 3
smoothSolver:  Solving for Uz, Initial residual = 0.0014779992, Final residual = 5.2145194e-05, No Iterations 3
GAMG:  Solving for p, Initial residual = 0.017199359, Final residual = 0.00014999827, No Iterations 3
time step continuity errors : sum local = 2.4519511e-05, global = 5.556075e-07, cumulative = -0.00037824239
ExecutionTime = 12.321177 s  ClockTime = 13 s

Time = 69s

smoothSolver:  Solving for Ux, Initial residual = 0.0013018549, Final residual = 4.4978978e-05, No Iterations 3
smoothSolver:  Solving for Uy, Initial residual = 0.012374122, Final residual = 0.00043056027, No Iterations 3
smoothSolver:  Solving for Uz, Initial residual = 0.0014644784, Final residual = 5.1690809e-05, No Iterations 3
GAMG:  Solving for p, Initial residual = 0.016985477, Final residual = 0.00015233273, No Iterations 3
time step continuity errors : sum local = 2.4982812e-05, global = 5.8924412e-07, cumulative = -0.00037765314
ExecutionTime = 12.485886 s  ClockTime = 13 s

Time = 70s

smoothSolver:  Solving for Ux, Initial residual = 0.0012973498, Final residual = 4.4839781e-05, No Iterations 3
smoothSolver:  Solving for Uy, Initial residual = 0.012130719, Final residual = 0.00042218823, No Iterations 3
smoothSolver:  Solving for Uz, Initial residual = 0.0014507393, Final residual = 5.1223946e-05, No Iterations 3
GAMG:  Solving for p, Initial residual = 0.016773341, Final residual = 0.00016001345, No Iterations 3
time step continuity errors : sum local = 2.6326627e-05, global = 6.0442044e-07, cumulative = -0.00037704872
ExecutionTime = 12.655816 s  ClockTime = 13 s

Time = 71s

smoothSolver:  Solving for Ux, Initial residual = 0.0012936054, Final residual = 4.4727779e-05, No Iterations 3
smoothSolver:  Solving for Uy, Initial residual = 0.011888676, Final residual = 0.00041385825, No Iterations 3
smoothSolver:  Solving for Uz, Initial residual = 0.0014368492, Final residual = 5.0745642e-05, No Iterations 3
GAMG:  Solving for p, Initial residual = 0.01656986, Final residual = 0.00010442948, No Iterations 4
time step continuity errors : sum local = 1.7234536e-05, global = 2.4756572e-07, cumulative = -0.00037680116
ExecutionTime = 12.841151 s  ClockTime = 13 s

Time = 72s

smoothSolver:  Solving for Ux, Initial residual = 0.0012912779, Final residual = 4.4667933e-05, No Iterations 3
smoothSolver:  Solving for Uy, Initial residual = 0.011663047, Final residual = 0.00040599903, No Iterations 3
smoothSolver:  Solving for Uz, Initial residual = 0.0014226539, Final residual = 5.0245649e-05, No Iterations 3
GAMG:  Solving for p, Initial residual = 0.016408594, Final residual = 0.00014682865, No Iterations 3
time step continuity errors : sum local = 2.4291648e-05, global = 4.5828833e-07, cumulative = -0.00037634287
ExecutionTime = 13.005129 s  ClockTime = 13 s

Time = 73s

smoothSolver:  Solving for Ux, Initial residual = 0.0012872034, Final residual = 4.4554702e-05, No Iterations 3
smoothSolver:  Solving for Uy, Initial residual = 0.011441047, Final residual = 0.00039831487, No Iterations 3
smoothSolver:  Solving for Uz, Initial residual = 0.0014095504, Final residual = 4.9795712e-05, No Iterations 3
GAMG:  Solving for p, Initial residual = 0.016204727, Final residual = 0.00014628842, No Iterations 3
time step continuity errors : sum local = 2.4275651e-05, global = 3.842036e-07, cumulative = -0.00037595867
ExecutionTime = 13.168872 s  ClockTime = 13 s

Time = 74s

smoothSolver:  Solving for Ux, Initial residual = 0.0012833972, Final residual = 4.4454589e-05, No Iterations 3
smoothSolver:  Solving for Uy, Initial residual = 0.011235705, Final residual = 0.00039120808, No Iterations 3
smoothSolver:  Solving for Uz, Initial residual = 0.0013969586, Final residual = 4.9368014e-05, No Iterations 3
GAMG:  Solving for p, Initial residual = 0.016043095, Final residual = 0.00015067747, No Iterations 3
time step continuity errors : sum local = 2.5079154e-05, global = 3.5610999e-07, cumulative = -0.00037560256
ExecutionTime = 13.335633 s  ClockTime = 14 s

Time = 75s

smoothSolver:  Solving for Ux, Initial residual = 0.0012801569, Final residual = 4.4384337e-05, No Iterations 3
smoothSolver:  Solving for Uy, Initial residual = 0.011047136, Final residual = 0.00038472953, No Iterations 3
smoothSolver:  Solving for Uz, Initial residual = 0.0013847989, Final residual = 4.8957693e-05, No Iterations 3
GAMG:  Solving for p, Initial residual = 0.015914504, Final residual = 0.00015641928, No Iterations 3
time step continuity errors : sum local = 2.6111422e-05, global = 3.5691188e-07, cumulative = -0.00037524564
ExecutionTime = 13.501511 s  ClockTime = 14 s

Time = 76s

smoothSolver:  Solving for Ux, Initial residual = 0.0012775016, Final residual = 4.4339911e-05, No Iterations 3
smoothSolver:  Solving for Uy, Initial residual = 0.010872739, Final residual = 0.00037873809, No Iterations 3
smoothSolver:  Solving for Uz, Initial residual = 0.0013729971, Final residual = 4.8560371e-05, No Iterations 3
GAMG:  Solving for p, Initial residual = 0.015819055, Final residual = 9.3499028e-05, No Iterations 4
time step continuity errors : sum local = 1.5652296e-05, global = 1.6961554e-07, cumulative = -0.00037507603
ExecutionTime = 13.676735 s  ClockTime = 14 s

Time = 77s

smoothSolver:  Solving for Ux, Initial residual = 0.0012761082, Final residual = 4.4332874e-05, No Iterations 3
smoothSolver:  Solving for Uy, Initial residual = 0.010708737, Final residual = 0.00037305589, No Iterations 3
smoothSolver:  Solving for Uz, Initial residual = 0.0013613817, Final residual = 4.8162705e-05, No Iterations 3
GAMG:  Solving for p, Initial residual = 0.015790781, Final residual = 0.00013868666, No Iterations 3
time step continuity errors : sum local = 2.3274571e-05, global = 3.6198872e-07, cumulative = -0.00037471404
ExecutionTime = 13.843011 s  ClockTime = 14 s

Time = 78s

smoothSolver:  Solving for Ux, Initial residual = 0.001272693, Final residual = 4.4249051e-05, No Iterations 3
smoothSolver:  Solving for Uy, Initial residual = 0.010532587, Final residual = 0.00036698775, No Iterations 3
smoothSolver:  Solving for Uz, Initial residual = 0.0013499857, Final residual = 4.778125e-05, No Iterations 3
GAMG:  Solving for p, Initial residual = 0.015663663, Final residual = 0.00013740142, No Iterations 3
time step continuity errors : sum local = 2.3126164e-05, global = 3.9370136e-07, cumulative = -0.00037432034
ExecutionTime = 14.008362 s  ClockTime = 14 s

Time = 79s

smoothSolver:  Solving for Ux, Initial residual = 0.0012692466, Final residual = 4.4156919e-05, No Iterations 3
smoothSolver:  Solving for Uy, Initial residual = 0.010350059, Final residual = 0.00036063914, No Iterations 3
smoothSolver:  Solving for Uz, Initial residual = 0.0013384807, Final residual = 4.7393775e-05, No Iterations 3
GAMG:  Solving for p, Initial residual = 0.015508802, Final residual = 0.00014283241, No Iterations 3
time step continuity errors : sum local = 2.4109819e-05, global = 4.3389456e-07, cumulative = -0.00037388644
ExecutionTime = 14.177437 s  ClockTime = 14 s

Time = 80s

smoothSolver:  Solving for Ux, Initial residual = 0.0012660136, Final residual = 4.4063499e-05, No Iterations 3
smoothSolver:  Solving for Uy, Initial residual = 0.010164988, Final residual = 0.00035408395, No Iterations 3
smoothSolver:  Solving for Uz, Initial residual = 0.00132679, Final residual = 4.6999797e-05, No Iterations 3
GAMG:  Solving for p, Initial residual = 0.01539421, Final residual = 0.00015028206, No Iterations 3
time step continuity errors : sum local = 2.5438341e-05, global = 4.6292069e-07, cumulative = -0.00037342352
ExecutionTime = 14.343479 s  ClockTime = 15 s

Time = 81s

smoothSolver:  Solving for Ux, Initial residual = 0.0012629435, Final residual = 4.3970372e-05, No Iterations 3
smoothSolver:  Solving for Uy, Initial residual = 0.0099815653, Final residual = 0.00034758257, No Iterations 3
smoothSolver:  Solving for Uz, Initial residual = 0.0013150567, Final residual = 4.6603916e-05, No Iterations 3
GAMG:  Solving for p, Initial residual = 0.015288667, Final residual = 9.2643708e-05, No Iterations 4
time step continuity errors : sum local = 1.5723594e-05, global = 2.0643925e-07, cumulative = -0.00037321708
ExecutionTime = 14.522925 s  ClockTime = 15 s

Time = 82s

smoothSolver:  Solving for Ux, Initial residual = 0.0012606658, Final residual = 4.3898661e-05, No Iterations 3
smoothSolver:  Solving for Uy, Initial residual = 0.009805999, Final residual = 0.00034143456, No Iterations 3
smoothSolver:  Solving for Uz, Initial residual = 0.0013034783, Final residual = 4.6204438e-05, No Iterations 3
GAMG:  Solving for p, Initial residual = 0.015215313, Final residual = 0.00013728623, No Iterations 3
time step continuity errors : sum local = 2.3351905e-05, global = 3.9051116e-07, cumulative = -0.00037282657
ExecutionTime = 14.688596 s  ClockTime = 15 s

Time = 83s

smoothSolver:  Solving for Ux, Initial residual = 0.0012568084, Final residual = 4.3780267e-05, No Iterations 3
smoothSolver:  Solving for Uy, Initial residual = 0.0096382656, Final residual = 0.00033558914, No Iterations 3
smoothSolver:  Solving for Uz, Initial residual = 0.001292592, Final residual = 4.5842504e-05, No Iterations 3
GAMG:  Solving for p, Initial residual = 0.015082952, Final residual = 0.00013639898, No Iterations 3
time step continuity errors : sum local = 2.3260946e-05, global = 3.4506745e-07, cumulative = -0.00037248151
ExecutionTime = 14.853347 s  ClockTime = 15 s

Time = 84s

smoothSolver:  Solving for Ux, Initial residual = 0.0012531463, Final residual = 4.3670845e-05, No Iterations 3
smoothSolver:  Solving for Uy, Initial residual = 0.0094819919, Final residual = 0.0003301253, No Iterations 3
smoothSolver:  Solving for Uz, Initial residual = 0.0012820304, Final residual = 4.5490091e-05, No Iterations 3
GAMG:  Solving for p, Initial residual = 0.014978478, Final residual = 0.00014139084, No Iterations 3
time step continuity errors : sum local = 2.4173508e-05, global = 3.2108628e-07, cumulative = -0.00037216042
ExecutionTime = 15.018107 s  ClockTime = 15 s

Time = 85s

smoothSolver:  Solving for Ux, Initial residual = 0.001250017, Final residual = 4.3587133e-05, No Iterations 3
smoothSolver:  Solving for Uy, Initial residual = 0.0093317893, Final residual = 0.00032487899, No Iterations 3
smoothSolver:  Solving for Uz, Initial residual = 0.0012715583, Final residual = 4.514036e-05, No Iterations 3
GAMG:  Solving for p, Initial residual = 0.014884818, Final residual = 0.00014654368, No Iterations 3
time step continuity errors : sum local = 2.5115721e-05, global = 3.1661576e-07, cumulative = -0.0003718438
ExecutionTime = 15.183062 s  ClockTime = 15 s

Time = 86s

smoothSolver:  Solving for Ux, Initial residual = 0.001247334, Final residual = 4.3524796e-05, No Iterations 3
smoothSolver:  Solving for Uy, Initial residual = 0.0091812136, Final residual = 0.00031956825, No Iterations 3
smoothSolver:  Solving for Uz, Initial residual = 0.001261061, Final residual = 4.4789101e-05, No Iterations 3
GAMG:  Solving for p, Initial residual = 0.014780567, Final residual = 8.6560246e-05, No Iterations 4
time step continuity errors : sum local = 1.4870518e-05, global = 1.5046363e-07, cumulative = -0.00037169334
ExecutionTime = 15.356385 s  ClockTime = 16 s

Time = 87s

smoothSolver:  Solving for Ux, Initial residual = 0.0012454771, Final residual = 4.3496079e-05, No Iterations 3
smoothSolver:  Solving for Uy, Initial residual = 0.0090311234, Final residual = 0.00031427103, No Iterations 3
smoothSolver:  Solving for Uz, Initial residual = 0.0012504915, Final residual = 4.4431337e-05, No Iterations 3
GAMG:  Solving for p, Initial residual = 0.014704538, Final residual = 0.00012925302, No Iterations 3
time step continuity errors : sum local = 2.2249878e-05, global = 2.997246e-07, cumulative = -0.00037139361
ExecutionTime = 15.521941 s  ClockTime = 16 s

Time = 88s

smoothSolver:  Solving for Ux, Initial residual = 0.0012418702, Final residual = 4.3420673e-05, No Iterations 3
smoothSolver:  Solving for Uy, Initial residual = 0.0088796272, Final residual = 0.00030896281, No Iterations 3
smoothSolver:  Solving for Uz, Initial residual = 0.0012403383, Final residual = 4.4101226e-05, No Iterations 3
GAMG:  Solving for p, Initial residual = 0.014598964, Final residual = 0.0001270871, No Iterations 3
time step continuity errors : sum local = 2.1932207e-05, global = 3.1166598e-07, cumulative = -0.00037108195
ExecutionTime = 15.687199 s  ClockTime = 16 s

Time = 89s

smoothSolver:  Solving for Ux, Initial residual = 0.0012382918, Final residual = 4.3357294e-05, No Iterations 3
smoothSolver:  Solving for Uy, Initial residual = 0.0087319827, Final residual = 0.00030390006, No Iterations 3
smoothSolver:  Solving for Uz, Initial residual = 0.0012303974, Final residual = 4.3780956e-05, No Iterations 3
GAMG:  Solving for p, Initial residual = 0.014460841, Final residual = 0.00013097497, No Iterations 3
time step continuity errors : sum local = 2.265967e-05, global = 3.3448301e-07, cumulative = -0.00037074747
ExecutionTime = 15.851188 s  ClockTime = 16 s

Time = 90s

smoothSolver:  Solving for Ux, Initial residual = 0.0012348934, Final residual = 4.3306756e-05, No Iterations 3
smoothSolver:  Solving for Uy, Initial residual = 0.0085878915, Final residual = 0.0002989885, No Iterations 3
smoothSolver:  Solving for Uz, Initial residual = 0.0012205179, Final residual = 4.3462572e-05, No Iterations 3
GAMG:  Solving for p, Initial residual = 0.014338515, Final residual = 0.00013708515, No Iterations 3
time step continuity errors : sum local = 2.3775124e-05, global = 3.5418108e-07, cumulative = -0.00037039328
ExecutionTime = 16.014003 s  ClockTime = 16 s

Time = 91s

smoothSolver:  Solving for Ux, Initial residual = 0.0012317397, Final residual = 4.3260027e-05, No Iterations 3
smoothSolver:  Solving for Uy, Initial residual = 0.0084464837, Final residual = 0.0002941701, No Iterations 3
smoothSolver:  Solving for Uz, Initial residual = 0.0012106262, Final residual = 4.3140393e-05, No Iterations 3
GAMG:  Solving for p, Initial residual = 0.014260075, Final residual = 0.00014185539, No Iterations 3
time step continuity errors : sum local = 2.466101e-05, global = 3.6286755e-07, cumulative = -0.00037003042
ExecutionTime = 16.179237 s  ClockTime = 16 s

Time = 92s

smoothSolver:  Solving for Ux, Initial residual = 0.001228723, Final residual = 4.3217831e-05, No Iterations 3
smoothSolver:  Solving for Uy, Initial residual = 0.0083088916, Final residual = 0.00028947835, No Iterations 3
smoothSolver:  Solving for Uz, Initial residual = 0.0012008271, Final residual = 4.2818712e-05, No Iterations 3
GAMG:  Solving for p, Initial residual = 0.014152612, Final residual = 8.1479848e-05, No Iterations 4
time step continuity errors : sum local = 1.4197697e-05, global = 1.6158385e-07, cumulative = -0.00036986883
ExecutionTime = 16.351739 s  ClockTime = 17 s

Time = 93s

smoothSolver:  Solving for Ux, Initial residual = 0.0012261352, Final residual = 4.3177637e-05, No Iterations 3
smoothSolver:  Solving for Uy, Initial residual = 0.0081727985, Final residual = 0.00028482371, No Iterations 3
smoothSolver:  Solving for Uz, Initial residual = 0.0011911496, Final residual = 4.2491202e-05, No Iterations 3
GAMG:  Solving for p, Initial residual = 0.014050366, Final residual = 0.00012247039, No Iterations 3
time step continuity errors : sum local = 2.1382647e-05, global = 2.9306123e-07, cumulative = -0.00036957577
ExecutionTime = 16.517185 s  ClockTime = 17 s

Time = 94s

smoothSolver:  Solving for Ux, Initial residual = 0.0012222392, Final residual = 4.3081288e-05, No Iterations 3
smoothSolver:  Solving for Uy, Initial residual = 0.0080418058, Final residual = 0.00028034751, No Iterations 3
smoothSolver:  Solving for Uz, Initial residual = 0.0011818323, Final residual = 4.2182404e-05, No Iterations 3
GAMG:  Solving for p, Initial residual = 0.013933193, Final residual = 0.00011991343, No Iterations 3
time step continuity errors : sum local = 2.0985814e-05, global = 2.6026955e-07, cumulative = -0.0003693155
ExecutionTime = 16.682563 s  ClockTime = 17 s

Time = 95s

smoothSolver:  Solving for Ux, Initial residual = 0.0012185998, Final residual = 4.2984267e-05, No Iterations 3
smoothSolver:  Solving for Uy, Initial residual = 0.0079146618, Final residual = 0.00027605162, No Iterations 3
smoothSolver:  Solving for Uz, Initial residual = 0.0011726522, Final residual = 4.1875029e-05, No Iterations 3
GAMG:  Solving for p, Initial residual = 0.013828321, Final residual = 0.00012396507, No Iterations 3
time step continuity errors : sum local = 2.1746503e-05, global = 2.5073442e-07, cumulative = -0.00036906477
ExecutionTime = 16.846231 s  ClockTime = 17 s

Time = 96s

smoothSolver:  Solving for Ux, Initial residual = 0.0012154298, Final residual = 4.2902312e-05, No Iterations 3
smoothSolver:  Solving for Uy, Initial residual = 0.0077949928, Final residual = 0.0002718766, No Iterations 3
smoothSolver:  Solving for Uz, Initial residual = 0.0011635078, Final residual = 4.1566209e-05, No Iterations 3
GAMG:  Solving for p, Initial residual = 0.013748561, Final residual = 0.00013085959, No Iterations 3
time step continuity errors : sum local = 2.3009603e-05, global = 2.5521595e-07, cumulative = -0.00036880955
ExecutionTime = 17.011306 s  ClockTime = 17 s

Time = 97s

smoothSolver:  Solving for Ux, Initial residual = 0.0012126424, Final residual = 4.2834285e-05, No Iterations 3
smoothSolver:  Solving for Uy, Initial residual = 0.0076791517, Final residual = 0.00026780429, No Iterations 3
smoothSolver:  Solving for Uz, Initial residual = 0.0011543856, Final residual = 4.1258518e-05, No Iterations 3
GAMG:  Solving for p, Initial residual = 0.013677851, Final residual = 0.00013674784, No Iterations 3
time step continuity errors : sum local = 2.4100019e-05, global = 2.7558613e-07, cumulative = -0.00036853397
ExecutionTime = 17.174988 s  ClockTime = 17 s

Time = 98s

smoothSolver:  Solving for Ux, Initial residual = 0.001209913, Final residual = 4.2772069e-05, No Iterations 3
smoothSolver:  Solving for Uy, Initial residual = 0.0075674234, Final residual = 0.00026381868, No Iterations 3
smoothSolver:  Solving for Uz, Initial residual = 0.0011453502, Final residual = 4.0954347e-05, No Iterations 3
GAMG:  Solving for p, Initial residual = 0.013609179, Final residual = 7.7588629e-05, No Iterations 4
time step continuity errors : sum local = 1.3704349e-05, global = 1.3892884e-07, cumulative = -0.00036839504
ExecutionTime = 17.349228 s  ClockTime = 18 s

Time = 99s

smoothSolver:  Solving for Ux, Initial residual = 0.001207574, Final residual = 4.2721297e-05, No Iterations 3
smoothSolver:  Solving for Uy, Initial residual = 0.0074579182, Final residual = 0.00025984485, No Iterations 3
smoothSolver:  Solving for Uz, Initial residual = 0.0011364272, Final residual = 4.0652557e-05, No Iterations 3
GAMG:  Solving for p, Initial residual = 0.013577703, Final residual = 0.00012016154, No Iterations 3
time step continuity errors : sum local = 2.1265676e-05, global = 2.673914e-07, cumulative = -0.00036812765
ExecutionTime = 17.514055 s  ClockTime = 18 s

Time = 100s

smoothSolver:  Solving for Ux, Initial residual = 0.0012036935, Final residual = 4.2628637e-05, No Iterations 3
smoothSolver:  Solving for Uy, Initial residual = 0.0073468214, Final residual = 0.00025591058, No Iterations 3
smoothSolver:  Solving for Uz, Initial residual = 0.0011278112, Final residual = 4.037093e-05, No Iterations 3
GAMG:  Solving for p, Initial residual = 0.013502305, Final residual = 0.00011729189, No Iterations 3
time step continuity errors : sum local = 2.0806282e-05, global = 2.6594314e-07, cumulative = -0.0003678617
ExecutionTime = 17.678821 s  ClockTime = 18 s

Time = 101s

smoothSolver:  Solving for Ux, Initial residual = 0.0011998821, Final residual = 4.2541038e-05, No Iterations 3
smoothSolver:  Solving for Uy, Initial residual = 0.0072400503, Final residual = 0.00025212375, No Iterations 3
smoothSolver:  Solving for Uz, Initial residual = 0.0011193636, Final residual = 4.0097745e-05, No Iterations 3
GAMG:  Solving for p, Initial residual = 0.013416978, Final residual = 0.00012067713, No Iterations 3
time step continuity errors : sum local = 2.1457129e-05, global = 2.7166085e-07, cumulative = -0.00036759004
ExecutionTime = 17.845696 s  ClockTime = 18 s

Time = 102s

smoothSolver:  Solving for Ux, Initial residual = 0.0011965024, Final residual = 4.2467325e-05, No Iterations 3
smoothSolver:  Solving for Uy, Initial residual = 0.0071422796, Final residual = 0.00024860542, No Iterations 3
smoothSolver:  Solving for Uz, Initial residual = 0.001110987, Final residual = 3.9825774e-05, No Iterations 3
GAMG:  Solving for p, Initial residual = 0.013352413, Final residual = 0.00012679357, No Iterations 3
time step continuity errors : sum local = 2.2596942e-05, global = 2.801141e-07, cumulative = -0.00036730993
ExecutionTime = 18.010804 s  ClockTime = 18 s

Time = 103s

smoothSolver:  Solving for Ux, Initial residual = 0.0011935441, Final residual = 4.2410836e-05, No Iterations 3
smoothSolver:  Solving for Uy, Initial residual = 0.0070495479, Final residual = 0.00024532873, No Iterations 3
smoothSolver:  Solving for Uz, Initial residual = 0.0011026663, Final residual = 3.9555077e-05, No Iterations 3
GAMG:  Solving for p, Initial residual = 0.013310353, Final residual = 0.000131741, No Iterations 3
time step continuity errors : sum local = 2.3531898e-05, global = 2.8523902e-07, cumulative = -0.00036702469
ExecutionTime = 18.175435 s  ClockTime = 18 s

Time = 104s

smoothSolver:  Solving for Ux, Initial residual = 0.001190699, Final residual = 4.2356297e-05, No Iterations 3
smoothSolver:  Solving for Uy, Initial residual = 0.0069578421, Final residual = 0.00024212398, No Iterations 3
smoothSolver:  Solving for Uz, Initial residual = 0.0010943894, Final residual = 3.9285038e-05, No Iterations 3
GAMG:  Solving for p, Initial residual = 0.013285364, Final residual = 7.4905116e-05, No Iterations 4
time step continuity errors : sum local = 1.3408775e-05, global = 1.3777302e-07, cumulative = -0.00036688692
ExecutionTime = 18.348517 s  ClockTime = 19 s

Time = 105s

smoothSolver:  Solving for Ux, Initial residual = 0.0011881831, Final residual = 4.2299054e-05, No Iterations 3
smoothSolver:  Solving for Uy, Initial residual = 0.0068673319, Final residual = 0.00023888162, No Iterations 3
smoothSolver:  Solving for Uz, Initial residual = 0.001086184, Final residual = 3.9011456e-05, No Iterations 3
GAMG:  Solving for p, Initial residual = 0.013279298, Final residual = 0.0001176382, No Iterations 3
time step continuity errors : sum local = 2.1098381e-05, global = 2.503107e-07, cumulative = -0.00036663661
ExecutionTime = 18.512999 s  ClockTime = 19 s

Time = 106s

smoothSolver:  Solving for Ux, Initial residual = 0.0011841691, Final residual = 4.2185879e-05, No Iterations 3
smoothSolver:  Solving for Uy, Initial residual = 0.0067756113, Final residual = 0.0002356774, No Iterations 3
smoothSolver:  Solving for Uz, Initial residual = 0.0010781062, Final residual = 3.8749386e-05, No Iterations 3
GAMG:  Solving for p, Initial residual = 0.013191126, Final residual = 0.00011567987, No Iterations 3
time step continuity errors : sum local = 2.0791694e-05, global = 2.3523576e-07, cumulative = -0.00036640137
ExecutionTime = 18.677709 s  ClockTime = 19 s

Time = 107s

smoothSolver:  Solving for Ux, Initial residual = 0.0011801027, Final residual = 4.2068934e-05, No Iterations 3
smoothSolver:  Solving for Uy, Initial residual = 0.0066847193, Final residual = 0.0002324401, No Iterations 3
smoothSolver:  Solving for Uz, Initial residual = 0.0010700251, Final residual = 3.8484952e-05, No Iterations 3
GAMG:  Solving for p, Initial residual = 0.013108614, Final residual = 0.00011940891, No Iterations 3
time step continuity errors : sum local = 2.1507447e-05, global = 2.3529093e-07, cumulative = -0.00036616608
ExecutionTime = 18.843362 s  ClockTime = 19 s

Time = 108s

smoothSolver:  Solving for Ux, Initial residual = 0.0011762798, Final residual = 4.1959544e-05, No Iterations 3
smoothSolver:  Solving for Uy, Initial residual = 0.0065916076, Final residual = 0.00022916134, No Iterations 3
smoothSolver:  Solving for Uz, Initial residual = 0.0010618736, Final residual = 3.8217635e-05, No Iterations 3
GAMG:  Solving for p, Initial residual = 0.013059865, Final residual = 0.00012493069, No Iterations 3
time step continuity errors : sum local = 2.2548168e-05, global = 2.4379859e-07, cumulative = -0.00036592228
ExecutionTime = 19.00923 s  ClockTime = 19 s

Time = 109s

smoothSolver:  Solving for Ux, Initial residual = 0.0011727858, Final residual = 4.1854134e-05, No Iterations 3
smoothSolver:  Solving for Uy, Initial residual = 0.00650071, Final residual = 0.00022595121, No Iterations 3
smoothSolver:  Solving for Uz, Initial residual = 0.001053714, Final residual = 3.7949797e-05, No Iterations 3
GAMG:  Solving for p, Initial residual = 0.013016795, Final residual = 0.00012904189, No Iterations 3
time step continuity errors : sum local = 2.3335833e-05, global = 2.5105863e-07, cumulative = -0.00036567122
ExecutionTime = 19.175818 s  ClockTime = 19 s

Time = 110s

smoothSolver:  Solving for Ux, Initial residual = 0.0011694222, Final residual = 4.1755195e-05, No Iterations 3
smoothSolver:  Solving for Uy, Initial residual = 0.0064164925, Final residual = 0.00022290406, No Iterations 3
smoothSolver:  Solving for Uz, Initial residual = 0.0010456877, Final residual = 3.7684935e-05, No Iterations 3
GAMG:  Solving for p, Initial residual = 0.012989382, Final residual = 7.1844688e-05, No Iterations 4
time step continuity errors : sum local = 1.3017314e-05, global = 1.2415234e-07, cumulative = -0.00036554707
ExecutionTime = 19.351351 s  ClockTime = 20 s

Time = 111s

smoothSolver:  Solving for Ux, Initial residual = 0.0011662797, Final residual = 4.1666457e-05, No Iterations 3
smoothSolver:  Solving for Uy, Initial residual = 0.0063376647, Final residual = 0.00022010765, No Iterations 3
smoothSolver:  Solving for Uz, Initial residual = 0.0010379203, Final residual = 3.7422708e-05, No Iterations 3
GAMG:  Solving for p, Initial residual = 0.012975686, Final residual = 0.00011314828, No Iterations 3
time step continuity errors : sum local = 2.0535075e-05, global = 2.3259154e-07, cumulative = -0.00036531448
ExecutionTime = 19.516819 s  ClockTime = 20 s

Time = 112s

smoothSolver:  Solving for Ux, Initial residual = 0.0011621443, Final residual = 4.1545313e-05, No Iterations 3
smoothSolver:  Solving for Uy, Initial residual = 0.0062617455, Final residual = 0.00021758562, No Iterations 3
smoothSolver:  Solving for Uz, Initial residual = 0.0010304461, Final residual = 3.7181699e-05, No Iterations 3
GAMG:  Solving for p, Initial residual = 0.012881268, Final residual = 0.00011071897, No Iterations 3
time step continuity errors : sum local = 2.0134318e-05, global = 2.27584e-07, cumulative = -0.00036508689
ExecutionTime = 19.681513 s  ClockTime = 20 s

Time = 113s

smoothSolver:  Solving for Ux, Initial residual = 0.0011580419, Final residual = 4.142049e-05, No Iterations 3
smoothSolver:  Solving for Uy, Initial residual = 0.0061915868, Final residual = 0.00021525442, No Iterations 3
smoothSolver:  Solving for Uz, Initial residual = 0.0010230546, Final residual = 3.6944195e-05, No Iterations 3
GAMG:  Solving for p, Initial residual = 0.012771231, Final residual = 0.00011462161, No Iterations 3
time step continuity errors : sum local = 2.0885791e-05, global = 2.2999648e-07, cumulative = -0.0003648569
ExecutionTime = 19.846379 s  ClockTime = 20 s

Time = 114s

smoothSolver:  Solving for Ux, Initial residual = 0.0011542443, Final residual = 4.1304268e-05, No Iterations 3
smoothSolver:  Solving for Uy, Initial residual = 0.0061238533, Final residual = 0.00021305004, No Iterations 3
smoothSolver:  Solving for Uz, Initial residual = 0.0010156665, Final residual = 3.6704032e-05, No Iterations 3
GAMG:  Solving for p, Initial residual = 0.01265512, Final residual = 0.00012066226, No Iterations 3
time step continuity errors : sum local = 2.202999e-05, global = 2.3530041e-07, cumulative = -0.0003646216
ExecutionTime = 20.01186 s  ClockTime = 20 s

Time = 115s

smoothSolver:  Solving for Ux, Initial residual = 0.0011507713, Final residual = 4.1193895e-05, No Iterations 3
smoothSolver:  Solving for Uy, Initial residual = 0.0060589526, Final residual = 0.0002109895, No Iterations 3
smoothSolver:  Solving for Uz, Initial residual = 0.0010082734, Final residual = 3.6461206e-05, No Iterations 3
GAMG:  Solving for p, Initial residual = 0.012612, Final residual = 0.00012540885, No Iterations 3
time step continuity errors : sum local = 2.2941184e-05, global = 2.4415099e-07, cumulative = -0.00036437745
ExecutionTime = 20.178908 s  ClockTime = 20 s

Time = 116s

smoothSolver:  Solving for Ux, Initial residual = 0.0011474666, Final residual = 4.1091428e-05, No Iterations 3
smoothSolver:  Solving for Uy, Initial residual = 0.0060012009, Final residual = 0.00020912171, No Iterations 3
smoothSolver:  Solving for Uz, Initial residual = 0.0010010303, Final residual = 3.6221739e-05, No Iterations 3
GAMG:  Solving for p, Initial residual = 0.012578153, Final residual = 6.9183366e-05, No Iterations 4
time step continuity errors : sum local = 1.2680173e-05, global = 1.2163329e-07, cumulative = -0.00036425581
ExecutionTime = 20.35379 s  ClockTime = 21 s

Time = 117s

smoothSolver:  Solving for Ux, Initial residual = 0.0011444384, Final residual = 4.09859e-05, No Iterations 3
smoothSolver:  Solving for Uy, Initial residual = 0.0059480638, Final residual = 0.00020742638, No Iterations 3
smoothSolver:  Solving for Uz, Initial residual = 0.00099399152, Final residual = 3.5980972e-05, No Iterations 3
GAMG:  Solving for p, Initial residual = 0.012539958, Final residual = 0.00011132994, No Iterations 3
time step continuity errors : sum local = 2.0439701e-05, global = 2.1754765e-07, cumulative = -0.00036403826
ExecutionTime = 20.517461 s  ClockTime = 21 s

Time = 118s

smoothSolver:  Solving for Ux, Initial residual = 0.0011404052, Final residual = 4.0843074e-05, No Iterations 3
smoothSolver:  Solving for Uy, Initial residual = 0.005886724, Final residual = 0.00020550602, No Iterations 3
smoothSolver:  Solving for Uz, Initial residual = 0.00098699856, Final residual = 3.5749312e-05, No Iterations 3
GAMG:  Solving for p, Initial residual = 0.012435223, Final residual = 0.0001103106, No Iterations 3
time step continuity errors : sum local = 2.0292093e-05, global = 2.0276763e-07, cumulative = -0.0003638355
ExecutionTime = 20.681353 s  ClockTime = 21 s

Time = 119s

smoothSolver:  Solving for Ux, Initial residual = 0.0011362743, Final residual = 4.0696282e-05, No Iterations 3
smoothSolver:  Solving for Uy, Initial residual = 0.0058213713, Final residual = 0.00020335839, No Iterations 3
smoothSolver:  Solving for Uz, Initial residual = 0.0009798945, Final residual = 3.5514131e-05, No Iterations 3
GAMG:  Solving for p, Initial residual = 0.0123278, Final residual = 0.00011463618, No Iterations 3
time step continuity errors : sum local = 2.1128225e-05, global = 1.9255382e-07, cumulative = -0.00036364294
ExecutionTime = 20.845968 s  ClockTime = 21 s

Time = 120s

smoothSolver:  Solving for Ux, Initial residual = 0.0011321986, Final residual = 4.0552273e-05, No Iterations 3
smoothSolver:  Solving for Uy, Initial residual = 0.005753318, Final residual = 0.00020102719, No Iterations 3
smoothSolver:  Solving for Uz, Initial residual = 0.00097267167, Final residual = 3.5272901e-05, No Iterations 3
GAMG:  Solving for p, Initial residual = 0.012263385, Final residual = 0.0001200592, No Iterations 3
time step continuity errors : sum local = 2.216911e-05, global = 1.8886244e-07, cumulative = -0.00036345408
ExecutionTime = 21.009415 s  ClockTime = 21 s

Time = 121s

smoothSolver:  Solving for Ux, Initial residual = 0.0011282426, Final residual = 4.0422505e-05, No Iterations 3
smoothSolver:  Solving for Uy, Initial residual = 0.0056865801, Final residual = 0.00019867651, No Iterations 3
smoothSolver:  Solving for Uz, Initial residual = 0.00096540849, Final residual = 3.5030648e-05, No Iterations 3
GAMG:  Solving for p, Initial residual = 0.012231677, Final residual = 6.6093927e-05, No Iterations 4
time step continuity errors : sum local = 1.2226127e-05, global = 9.1329201e-08, cumulative = -0.00036336275
ExecutionTime = 21.184153 s  ClockTime = 21 s

Time = 122s

smoothSolver:  Solving for Ux, Initial residual = 0.0011245999, Final residual = 4.0314095e-05, No Iterations 3
smoothSolver:  Solving for Uy, Initial residual = 0.0056266413, Final residual = 0.00019655622, No Iterations 3
smoothSolver:  Solving for Uz, Initial residual = 0.00095824956, Final residual = 3.479126e-05, No Iterations 3
GAMG:  Solving for p, Initial residual = 0.012227335, Final residual = 0.00010886224, No Iterations 3
time step continuity errors : sum local = 2.0167202e-05, global = 1.7950712e-07, cumulative = -0.00036318324
ExecutionTime = 21.349033 s  ClockTime = 22 s

Time = 123s

smoothSolver:  Solving for Ux, Initial residual = 0.0011203892, Final residual = 4.0191052e-05, No Iterations 3
smoothSolver:  Solving for Uy, Initial residual = 0.0055690527, Final residual = 0.0001945303, No Iterations 3
smoothSolver:  Solving for Uz, Initial residual = 0.00095131634, Final residual = 3.4566961e-05, No Iterations 3
GAMG:  Solving for p, Initial residual = 0.012170646, Final residual = 0.00010877111, No Iterations 3
time step continuity errors : sum local = 2.0186092e-05, global = 1.8750649e-07, cumulative = -0.00036299574
ExecutionTime = 21.514868 s  ClockTime = 22 s

Time = 124s

smoothSolver:  Solving for Ux, Initial residual = 0.0011162446, Final residual = 4.006888e-05, No Iterations 3
smoothSolver:  Solving for Uy, Initial residual = 0.0055163411, Final residual = 0.00019269245, No Iterations 3
smoothSolver:  Solving for Uz, Initial residual = 0.00094449632, Final residual = 3.4345773e-05, No Iterations 3
GAMG:  Solving for p, Initial residual = 0.012118396, Final residual = 0.0001131444, No Iterations 3
time step continuity errors : sum local = 2.1035626e-05, global = 2.0181545e-07, cumulative = -0.00036279392
ExecutionTime = 21.680343 s  ClockTime = 22 s

Time = 125s

smoothSolver:  Solving for Ux, Initial residual = 0.0011123243, Final residual = 3.9955927e-05, No Iterations 3
smoothSolver:  Solving for Uy, Initial residual = 0.005469985, Final residual = 0.00019109265, No Iterations 3
smoothSolver:  Solving for Uz, Initial residual = 0.00093774598, Final residual = 3.4125883e-05, No Iterations 3
GAMG:  Solving for p, Initial residual = 0.012056178, Final residual = 0.00011803315, No Iterations 3
time step continuity errors : sum local = 2.1983521e-05, global = 2.1687834e-07, cumulative = -0.00036257704
ExecutionTime = 21.84451 s  ClockTime = 22 s

Time = 126s

smoothSolver:  Solving for Ux, Initial residual = 0.0011085871, Final residual = 3.9842494e-05, No Iterations 3
smoothSolver:  Solving for Uy, Initial residual = 0.0054259768, Final residual = 0.00018959468, No Iterations 3
smoothSolver:  Solving for Uz, Initial residual = 0.00093105788, Final residual = 3.3905794e-05, No Iterations 3
GAMG:  Solving for p, Initial residual = 0.011977822, Final residual = 6.6087385e-05, No Iterations 4
time step continuity errors : sum local = 1.2329807e-05, global = 1.1328086e-07, cumulative = -0.00036246376
ExecutionTime = 22.017572 s  ClockTime = 22 s

Time = 127s

smoothSolver:  Solving for Ux, Initial residual = 0.0011050028, Final residual = 3.9729529e-05, No Iterations 3
smoothSolver:  Solving for Uy, Initial residual = 0.0053847765, Final residual = 0.0001882054, No Iterations 3
smoothSolver:  Solving for Uz, Initial residual = 0.00092446032, Final residual = 3.3683035e-05, No Iterations 3
GAMG:  Solving for p, Initial residual = 0.011942474, Final residual = 0.00010744856, No Iterations 3
time step continuity errors : sum local = 2.0075456e-05, global = 2.0689577e-07, cumulative = -0.00036225687
ExecutionTime = 22.182006 s  ClockTime = 22 s

Time = 128s

smoothSolver:  Solving for Ux, Initial residual = 0.0011007186, Final residual = 3.9591657e-05, No Iterations 3
smoothSolver:  Solving for Uy, Initial residual = 0.0053352246, Final residual = 0.00018655547, No Iterations 3
smoothSolver:  Solving for Uz, Initial residual = 0.00091794161, Final residual = 3.3468172e-05, No Iterations 3
GAMG:  Solving for p, Initial residual = 0.011833056, Final residual = 0.00010638379, No Iterations 3
time step continuity errors : sum local = 1.9911039e-05, global = 1.9908401e-07, cumulative = -0.00036205778
ExecutionTime = 22.345502 s  ClockTime = 23 s

Time = 129s

smoothSolver:  Solving for Ux, Initial residual = 0.0010965626, Final residual = 3.9457623e-05, No Iterations 3
smoothSolver:  Solving for Uy, Initial residual = 0.0052900101, Final residual = 0.00018500778, No Iterations 3
smoothSolver:  Solving for Uz, Initial residual = 0.00091153484, Final residual = 3.3255935e-05, No Iterations 3
GAMG:  Solving for p, Initial residual = 0.011741877, Final residual = 0.00010981028, No Iterations 3
time step continuity errors : sum local = 2.058795e-05, global = 1.9530014e-07, cumulative = -0.00036186248
ExecutionTime = 22.509466 s  ClockTime = 23 s

Time = 130s

smoothSolver:  Solving for Ux, Initial residual = 0.0010926216, Final residual = 3.9329885e-05, No Iterations 3
smoothSolver:  Solving for Uy, Initial residual = 0.0052496366, Final residual = 0.00018360879, No Iterations 3
[...]
GAMG:  Solving for p, Initial residual = 1.0929291e-05, Final residual = 8.1770957e-08, No Iterations 3
time step continuity errors : sum local = 1.9151583e-08, global = -9.3235231e-11, cumulative = -0.00035404904
ExecutionTime = 422.4379 s  ClockTime = 426 s

Time = 2540s

smoothSolver:  Solving for Ux, Initial residual = 7.7523476e-07, Final residual = 2.8392723e-08, No Iterations 3
smoothSolver:  Solving for Uy, Initial residual = 5.6612853e-06, Final residual = 2.0861036e-07, No Iterations 3
smoothSolver:  Solving for Uz, Initial residual = 3.1773583e-07, Final residual = 1.1305275e-08, No Iterations 3
GAMG:  Solving for p, Initial residual = 1.0895478e-05, Final residual = 8.1593922e-08, No Iterations 3
time step continuity errors : sum local = 1.911012e-08, global = -9.4389978e-11, cumulative = -0.00035404914
ExecutionTime = 422.60231 s  ClockTime = 426 s

Time = 2541s

smoothSolver:  Solving for Ux, Initial residual = 7.7267726e-07, Final residual = 2.830563e-08, No Iterations 3
smoothSolver:  Solving for Uy, Initial residual = 5.6421837e-06, Final residual = 2.0788759e-07, No Iterations 3
smoothSolver:  Solving for Uz, Initial residual = 3.1670614e-07, Final residual = 1.1270246e-08, No Iterations 3
GAMG:  Solving for p, Initial residual = 1.0863406e-05, Final residual = 8.1495078e-08, No Iterations 3
time step continuity errors : sum local = 1.908697e-08, global = -9.4951778e-11, cumulative = -0.00035404923
ExecutionTime = 422.76799 s  ClockTime = 427 s

Time = 2542s

smoothSolver:  Solving for Ux, Initial residual = 7.7017549e-07, Final residual = 2.8215637e-08, No Iterations 3
smoothSolver:  Solving for Uy, Initial residual = 5.6222335e-06, Final residual = 2.0716893e-07, No Iterations 3
smoothSolver:  Solving for Uz, Initial residual = 3.1567588e-07, Final residual = 1.1237345e-08, No Iterations 3
GAMG:  Solving for p, Initial residual = 1.0830926e-05, Final residual = 8.1419894e-08, No Iterations 3
time step continuity errors : sum local = 1.9069362e-08, global = -9.4508917e-11, cumulative = -0.00035404933
ExecutionTime = 422.9332 s  ClockTime = 427 s

Time = 2543s

smoothSolver:  Solving for Ux, Initial residual = 7.6764179e-07, Final residual = 2.8125621e-08, No Iterations 3
smoothSolver:  Solving for Uy, Initial residual = 5.6024391e-06, Final residual = 2.0645297e-07, No Iterations 3
smoothSolver:  Solving for Uz, Initial residual = 3.1467083e-07, Final residual = 1.1206325e-08, No Iterations 3
GAMG:  Solving for p, Initial residual = 1.0798321e-05, Final residual = 8.131604e-08, No Iterations 3
time step continuity errors : sum local = 1.9045039e-08, global = -9.3352623e-11, cumulative = -0.00035404942
ExecutionTime = 423.09665 s  ClockTime = 427 s

Time = 2544s

smoothSolver:  Solving for Ux, Initial residual = 7.652113e-07, Final residual = 2.8035713e-08, No Iterations 3
smoothSolver:  Solving for Uy, Initial residual = 5.5830739e-06, Final residual = 2.0572007e-07, No Iterations 3
smoothSolver:  Solving for Uz, Initial residual = 3.1369756e-07, Final residual = 1.1174905e-08, No Iterations 3
GAMG:  Solving for p, Initial residual = 1.0765184e-05, Final residual = 8.1173749e-08, No Iterations 3
time step continuity errors : sum local = 1.9011713e-08, global = -9.1616393e-11, cumulative = -0.00035404951
ExecutionTime = 423.26085 s  ClockTime = 427 s

Time = 2545s

smoothSolver:  Solving for Ux, Initial residual = 7.6287365e-07, Final residual = 2.795134e-08, No Iterations 3
smoothSolver:  Solving for Uy, Initial residual = 5.5640948e-06, Final residual = 2.0497507e-07, No Iterations 3
smoothSolver:  Solving for Uz, Initial residual = 3.1272092e-07, Final residual = 1.1141646e-08, No Iterations 3
GAMG:  Solving for p, Initial residual = 1.0732594e-05, Final residual = 8.117834e-08, No Iterations 3
time step continuity errors : sum local = 1.9012789e-08, global = -9.4466401e-11, cumulative = -0.00035404961
ExecutionTime = 423.42486 s  ClockTime = 427 s

Time = 2546s

smoothSolver:  Solving for Ux, Initial residual = 7.6058552e-07, Final residual = 2.7869629e-08, No Iterations 3
smoothSolver:  Solving for Uy, Initial residual = 5.5457851e-06, Final residual = 2.042153e-07, No Iterations 3
smoothSolver:  Solving for Uz, Initial residual = 3.1180476e-07, Final residual = 1.1109672e-08, No Iterations 3
GAMG:  Solving for p, Initial residual = 1.070146e-05, Final residual = 8.0943819e-08, No Iterations 3
time step continuity errors : sum local = 1.8957862e-08, global = -9.4321163e-11, cumulative = -0.0003540497
ExecutionTime = 423.58902 s  ClockTime = 427 s

Time = 2547s

smoothSolver:  Solving for Ux, Initial residual = 7.581884e-07, Final residual = 2.7788515e-08, No Iterations 3
smoothSolver:  Solving for Uy, Initial residual = 5.5278931e-06, Final residual = 2.0342085e-07, No Iterations 3
smoothSolver:  Solving for Uz, Initial residual = 3.1094563e-07, Final residual = 1.1079262e-08, No Iterations 3
GAMG:  Solving for p, Initial residual = 1.0670911e-05, Final residual = 8.0520205e-08, No Iterations 3
time step continuity errors : sum local = 1.8858648e-08, global = -9.2040096e-11, cumulative = -0.00035404979
ExecutionTime = 423.75368 s  ClockTime = 428 s

Time = 2548s

smoothSolver:  Solving for Ux, Initial residual = 7.5577761e-07, Final residual = 2.771778e-08, No Iterations 3
smoothSolver:  Solving for Uy, Initial residual = 5.509905e-06, Final residual = 2.026196e-07, No Iterations 3
smoothSolver:  Solving for Uz, Initial residual = 3.1008555e-07, Final residual = 1.1047406e-08, No Iterations 3
GAMG:  Solving for p, Initial residual = 1.0645039e-05, Final residual = 8.0257182e-08, No Iterations 3
time step continuity errors : sum local = 1.8797046e-08, global = -9.1800121e-11, cumulative = -0.00035404988
ExecutionTime = 423.91991 s  ClockTime = 428 s

Time = 2549s

smoothSolver:  Solving for Ux, Initial residual = 7.5343936e-07, Final residual = 2.7644904e-08, No Iterations 3
smoothSolver:  Solving for Uy, Initial residual = 5.491376e-06, Final residual = 2.0179923e-07, No Iterations 3
smoothSolver:  Solving for Uz, Initial residual = 3.0918316e-07, Final residual = 1.101262e-08, No Iterations 3
GAMG:  Solving for p, Initial residual = 1.0619741e-05, Final residual = 8.0010006e-08, No Iterations 3
time step continuity errors : sum local = 1.8739155e-08, global = -9.0740946e-11, cumulative = -0.00035404997
ExecutionTime = 424.08506 s  ClockTime = 428 s

Time = 2550s

smoothSolver:  Solving for Ux, Initial residual = 7.5114039e-07, Final residual = 2.7572436e-08, No Iterations 3
smoothSolver:  Solving for Uy, Initial residual = 5.4724733e-06, Final residual = 2.009948e-07, No Iterations 3
smoothSolver:  Solving for Uz, Initial residual = 3.082665e-07, Final residual = 1.0976453e-08, No Iterations 3
GAMG:  Solving for p, Initial residual = 1.0593351e-05, Final residual = 7.9812801e-08, No Iterations 3
time step continuity errors : sum local = 1.8692968e-08, global = -8.8590652e-11, cumulative = -0.00035405006
ExecutionTime = 424.25089 s  ClockTime = 428 s

Time = 2551s

smoothSolver:  Solving for Ux, Initial residual = 7.4897305e-07, Final residual = 2.7497284e-08, No Iterations 3
smoothSolver:  Solving for Uy, Initial residual = 5.45325e-06, Final residual = 2.002225e-07, No Iterations 3
smoothSolver:  Solving for Uz, Initial residual = 3.0738773e-07, Final residual = 1.0940418e-08, No Iterations 3
GAMG:  Solving for p, Initial residual = 1.0567508e-05, Final residual = 7.9601528e-08, No Iterations 3
time step continuity errors : sum local = 1.8643486e-08, global = -8.6850444e-11, cumulative = -0.00035405015
ExecutionTime = 424.41542 s  ClockTime = 428 s

Time = 2552s

smoothSolver:  Solving for Ux, Initial residual = 7.468182e-07, Final residual = 2.7413e-08, No Iterations 3
smoothSolver:  Solving for Uy, Initial residual = 5.4341694e-06, Final residual = 1.9949848e-07, No Iterations 3
smoothSolver:  Solving for Uz, Initial residual = 3.0651315e-07, Final residual = 1.0907216e-08, No Iterations 3
GAMG:  Solving for p, Initial residual = 1.0542647e-05, Final residual = 7.9408111e-08, No Iterations 3
time step continuity errors : sum local = 1.8598186e-08, global = -8.137784e-11, cumulative = -0.00035405023
ExecutionTime = 424.57929 s  ClockTime = 428 s

Time = 2553s

smoothSolver:  Solving for Ux, Initial residual = 7.4464301e-07, Final residual = 2.7323829e-08, No Iterations 3
smoothSolver:  Solving for Uy, Initial residual = 5.4158965e-06, Final residual = 1.9881367e-07, No Iterations 3
smoothSolver:  Solving for Uz, Initial residual = 3.0558528e-07, Final residual = 1.0875923e-08, No Iterations 3
GAMG:  Solving for p, Initial residual = 1.0518249e-05, Final residual = 7.9120567e-08, No Iterations 3
time step continuity errors : sum local = 1.8530841e-08, global = -7.660328e-11, cumulative = -0.00035405031
ExecutionTime = 424.74447 s  ClockTime = 429 s

Time = 2554s

smoothSolver:  Solving for Ux, Initial residual = 7.4240352e-07, Final residual = 2.7231853e-08, No Iterations 3
smoothSolver:  Solving for Uy, Initial residual = 5.3978968e-06, Final residual = 1.9813128e-07, No Iterations 3
smoothSolver:  Solving for Uz, Initial residual = 3.0466108e-07, Final residual = 1.0845593e-08, No Iterations 3
GAMG:  Solving for p, Initial residual = 1.0491248e-05, Final residual = 7.891832e-08, No Iterations 3
time step continuity errors : sum local = 1.8483473e-08, global = -6.9377007e-11, cumulative = -0.00035405038
ExecutionTime = 424.91042 s  ClockTime = 429 s

Time = 2555s

smoothSolver:  Solving for Ux, Initial residual = 7.4008074e-07, Final residual = 2.7135188e-08, No Iterations 3
smoothSolver:  Solving for Uy, Initial residual = 5.380427e-06, Final residual = 1.9744774e-07, No Iterations 3
smoothSolver:  Solving for Uz, Initial residual = 3.0371907e-07, Final residual = 1.081363e-08, No Iterations 3
GAMG:  Solving for p, Initial residual = 1.0462563e-05, Final residual = 7.8724222e-08, No Iterations 3
time step continuity errors : sum local = 1.8438013e-08, global = -6.1677024e-11, cumulative = -0.00035405044
ExecutionTime = 425.07498 s  ClockTime = 429 s

Time = 2556s

smoothSolver:  Solving for Ux, Initial residual = 7.3770209e-07, Final residual = 2.7038895e-08, No Iterations 3
smoothSolver:  Solving for Uy, Initial residual = 5.3625225e-06, Final residual = 1.9674862e-07, No Iterations 3
smoothSolver:  Solving for Uz, Initial residual = 3.0277887e-07, Final residual = 1.0782627e-08, No Iterations 3
GAMG:  Solving for p, Initial residual = 1.043148e-05, Final residual = 7.8399023e-08, No Iterations 3
time step continuity errors : sum local = 1.8361848e-08, global = -5.7062309e-11, cumulative = -0.0003540505
ExecutionTime = 425.23919 s  ClockTime = 429 s

Time = 2557s

smoothSolver:  Solving for Ux, Initial residual = 7.3523049e-07, Final residual = 2.6951409e-08, No Iterations 3
smoothSolver:  Solving for Uy, Initial residual = 5.3449633e-06, Final residual = 1.9607277e-07, No Iterations 3
smoothSolver:  Solving for Uz, Initial residual = 3.0185942e-07, Final residual = 1.074997e-08, No Iterations 3
GAMG:  Solving for p, Initial residual = 1.0399763e-05, Final residual = 7.8174659e-08, No Iterations 3
time step continuity errors : sum local = 1.83093e-08, global = -4.6501141e-11, cumulative = -0.00035405054
ExecutionTime = 425.40225 s  ClockTime = 429 s

Time = 2558s

smoothSolver:  Solving for Ux, Initial residual = 7.3284541e-07, Final residual = 2.6868579e-08, No Iterations 3
smoothSolver:  Solving for Uy, Initial residual = 5.3280704e-06, Final residual = 1.9542335e-07, No Iterations 3
smoothSolver:  Solving for Uz, Initial residual = 3.0097698e-07, Final residual = 1.0717133e-08, No Iterations 3
GAMG:  Solving for p, Initial residual = 1.0369159e-05, Final residual = 7.7964779e-08, No Iterations 3
time step continuity errors : sum local = 1.8260144e-08, global = -3.399062e-11, cumulative = -0.00035405058
ExecutionTime = 425.56577 s  ClockTime = 429 s

Time = 2559s

smoothSolver:  Solving for Ux, Initial residual = 7.3055602e-07, Final residual = 2.6790377e-08, No Iterations 3
smoothSolver:  Solving for Uy, Initial residual = 5.3113165e-06, Final residual = 1.9479351e-07, No Iterations 3
smoothSolver:  Solving for Uz, Initial residual = 3.001247e-07, Final residual = 1.0685962e-08, No Iterations 3
GAMG:  Solving for p, Initial residual = 1.0340603e-05, Final residual = 7.7766751e-08, No Iterations 3
time step continuity errors : sum local = 1.8213764e-08, global = -1.6324878e-11, cumulative = -0.00035405059
ExecutionTime = 425.72954 s  ClockTime = 430 s

Time = 2560s

smoothSolver:  Solving for Ux, Initial residual = 7.2831133e-07, Final residual = 2.6708631e-08, No Iterations 3
smoothSolver:  Solving for Uy, Initial residual = 5.2952726e-06, Final residual = 1.9420673e-07, No Iterations 3
smoothSolver:  Solving for Uz, Initial residual = 2.992787e-07, Final residual = 1.0654877e-08, No Iterations 3
GAMG:  Solving for p, Initial residual = 1.0312471e-05, Final residual = 7.7629002e-08, No Iterations 3
time step continuity errors : sum local = 1.8181502e-08, global = 1.7888785e-14, cumulative = -0.00035405059
ExecutionTime = 425.89272 s  ClockTime = 430 s

Time = 2561s

smoothSolver:  Solving for Ux, Initial residual = 7.2610727e-07, Final residual = 2.6627914e-08, No Iterations 3
smoothSolver:  Solving for Uy, Initial residual = 5.2798756e-06, Final residual = 1.9365567e-07, No Iterations 3
smoothSolver:  Solving for Uz, Initial residual = 2.9843065e-07, Final residual = 1.0623682e-08, No Iterations 3
GAMG:  Solving for p, Initial residual = 1.0283465e-05, Final residual = 7.7454963e-08, No Iterations 3
time step continuity errors : sum local = 1.814074e-08, global = 2.0674982e-11, cumulative = -0.00035405057
ExecutionTime = 426.05644 s  ClockTime = 430 s

Time = 2562s

smoothSolver:  Solving for Ux, Initial residual = 7.2384067e-07, Final residual = 2.65406e-08, No Iterations 3
smoothSolver:  Solving for Uy, Initial residual = 5.2645026e-06, Final residual = 1.9312594e-07, No Iterations 3
smoothSolver:  Solving for Uz, Initial residual = 2.9754995e-07, Final residual = 1.0589913e-08, No Iterations 3
GAMG:  Solving for p, Initial residual = 1.025347e-05, Final residual = 7.7246422e-08, No Iterations 3
time step continuity errors : sum local = 1.8091897e-08, global = 3.8325882e-11, cumulative = -0.00035405053
ExecutionTime = 426.22188 s  ClockTime = 430 s

Time = 2563s

smoothSolver:  Solving for Ux, Initial residual = 7.2161494e-07, Final residual = 2.6452653e-08, No Iterations 3
smoothSolver:  Solving for Uy, Initial residual = 5.249722e-06, Final residual = 1.9262534e-07, No Iterations 3
smoothSolver:  Solving for Uz, Initial residual = 2.9666467e-07, Final residual = 1.0556129e-08, No Iterations 3
GAMG:  Solving for p, Initial residual = 1.0223852e-05, Final residual = 7.6977659e-08, No Iterations 3
time step continuity errors : sum local = 1.802895e-08, global = 5.3900238e-11, cumulative = -0.00035405048
ExecutionTime = 426.38582 s  ClockTime = 430 s

Time = 2564s

smoothSolver:  Solving for Ux, Initial residual = 7.1951524e-07, Final residual = 2.6365382e-08, No Iterations 3
smoothSolver:  Solving for Uy, Initial residual = 5.2345872e-06, Final residual = 1.9213908e-07, No Iterations 3
smoothSolver:  Solving for Uz, Initial residual = 2.9578022e-07, Final residual = 1.0523119e-08, No Iterations 3
GAMG:  Solving for p, Initial residual = 1.0194598e-05, Final residual = 7.6727343e-08, No Iterations 3
time step continuity errors : sum local = 1.7970323e-08, global = 6.8551103e-11, cumulative = -0.00035405041
ExecutionTime = 426.55068 s  ClockTime = 430 s

Time = 2565s

smoothSolver:  Solving for Ux, Initial residual = 7.1744597e-07, Final residual = 2.6278196e-08, No Iterations 3
smoothSolver:  Solving for Uy, Initial residual = 5.2198262e-06, Final residual = 1.9166752e-07, No Iterations 3
smoothSolver:  Solving for Uz, Initial residual = 2.9490685e-07, Final residual = 1.048922e-08, No Iterations 3
GAMG:  Solving for p, Initial residual = 1.0164476e-05, Final residual = 7.6552511e-08, No Iterations 3
time step continuity errors : sum local = 1.7929376e-08, global = 8.0007715e-11, cumulative = -0.00035405033
ExecutionTime = 426.71524 s  ClockTime = 431 s

Time = 2566s

smoothSolver:  Solving for Ux, Initial residual = 7.1533332e-07, Final residual = 2.6189201e-08, No Iterations 3
smoothSolver:  Solving for Uy, Initial residual = 5.2050243e-06, Final residual = 1.9119793e-07, No Iterations 3
smoothSolver:  Solving for Uz, Initial residual = 2.9400367e-07, Final residual = 1.0453347e-08, No Iterations 3
GAMG:  Solving for p, Initial residual = 1.0132469e-05, Final residual = 7.644268e-08, No Iterations 3
time step continuity errors : sum local = 1.7903652e-08, global = 8.6916805e-11, cumulative = -0.00035405024
ExecutionTime = 426.87984 s  ClockTime = 431 s

Time = 2567s

smoothSolver:  Solving for Ux, Initial residual = 7.1326034e-07, Final residual = 2.6101145e-08, No Iterations 3
smoothSolver:  Solving for Uy, Initial residual = 5.1903393e-06, Final residual = 1.9071453e-07, No Iterations 3
smoothSolver:  Solving for Uz, Initial residual = 2.9309082e-07, Final residual = 1.0417044e-08, No Iterations 3
GAMG:  Solving for p, Initial residual = 1.0101661e-05, Final residual = 7.6310241e-08, No Iterations 3
time step continuity errors : sum local = 1.7872632e-08, global = 9.0090648e-11, cumulative = -0.00035405015
ExecutionTime = 427.04451 s  ClockTime = 431 s

Time = 2568s

smoothSolver:  Solving for Ux, Initial residual = 7.1126964e-07, Final residual = 2.6017971e-08, No Iterations 3
smoothSolver:  Solving for Uy, Initial residual = 5.1762742e-06, Final residual = 1.9027508e-07, No Iterations 3
smoothSolver:  Solving for Uz, Initial residual = 2.9213392e-07, Final residual = 1.0381263e-08, No Iterations 3
GAMG:  Solving for p, Initial residual = 1.0074144e-05, Final residual = 7.6159653e-08, No Iterations 3
time step continuity errors : sum local = 1.7837363e-08, global = 8.9958117e-11, cumulative = -0.00035405006
ExecutionTime = 427.2091 s  ClockTime = 431 s

Time = 2569s

smoothSolver:  Solving for Ux, Initial residual = 7.0925223e-07, Final residual = 2.5936719e-08, No Iterations 3
smoothSolver:  Solving for Uy, Initial residual = 5.1618655e-06, Final residual = 1.8983105e-07, No Iterations 3
smoothSolver:  Solving for Uz, Initial residual = 2.9122136e-07, Final residual = 1.0346293e-08, No Iterations 3
GAMG:  Solving for p, Initial residual = 1.0048014e-05, Final residual = 7.6006254e-08, No Iterations 3
time step continuity errors : sum local = 1.7801434e-08, global = 8.6832477e-11, cumulative = -0.00035404998
ExecutionTime = 427.37196 s  ClockTime = 431 s

Time = 2570s

smoothSolver:  Solving for Ux, Initial residual = 7.0726975e-07, Final residual = 2.5858979e-08, No Iterations 3
smoothSolver:  Solving for Uy, Initial residual = 5.1476666e-06, Final residual = 1.8938346e-07, No Iterations 3
smoothSolver:  Solving for Uz, Initial residual = 2.9036901e-07, Final residual = 1.0314664e-08, No Iterations 3
GAMG:  Solving for p, Initial residual = 1.0021206e-05, Final residual = 7.5870968e-08, No Iterations 3
time step continuity errors : sum local = 1.7769748e-08, global = 8.1784527e-11, cumulative = -0.0003540499
ExecutionTime = 427.53544 s  ClockTime = 431 s

Time = 2571s

smoothSolver:  Solving for Ux, Initial residual = 7.0524757e-07, Final residual = 2.5786326e-08, No Iterations 3
smoothSolver:  Solving for Uy, Initial residual = 5.1341482e-06, Final residual = 1.8888847e-07, No Iterations 3
smoothSolver:  Solving for Uz, Initial residual = 2.8953458e-07, Final residual = 1.0284495e-08, No Iterations 3
GAMG:  Solving for p, Initial residual = 9.9946391e-06, Final residual = 7.5764997e-08, No Iterations 3
time step continuity errors : sum local = 1.7744928e-08, global = 7.4954098e-11, cumulative = -0.00035404982
ExecutionTime = 427.69943 s  ClockTime = 432 s


SIMPLE solution converged in 2571 iterations

End

Finalising parallel run
