/*---------------------------------------------------------------------------*\
  =========                 |
  \\      /  F ield         | OpenFOAM: The Open Source CFD Toolbox
   \\    /   O peration     | Website:  https://openfoam.org
    \\  /    A nd           | Version:  11
     \\/     M anipulation  |
\*---------------------------------------------------------------------------*/
Build  : 11-e1fc8c682ae6
Exec   : foamRun -solver incompressibleFluid -parallel
Date   : Feb 07 2026
Time   : 12:14:37
Host   : "ip-172-31-18-192"
PID    : 117487
I/O    : uncollated
Case   : /home/ubuntu/cases/bifurcation_angle30_500_ascii/Re400
nProcs : 16
Slaves : 
15
(
"ip-172-31-18-192.117488"
"ip-172-31-18-192.117489"
"ip-172-31-18-192.117490"
"ip-172-31-18-192.117491"
"ip-172-31-18-192.117492"
"ip-172-31-18-192.117493"
"ip-172-31-18-192.117494"
"ip-172-31-18-192.117495"
"ip-172-31-18-192.117496"
"ip-172-31-18-192.117497"
"ip-172-31-18-192.117498"
"ip-172-31-18-192.117499"
"ip-172-31-18-192.117500"
"ip-172-31-18-192.117501"
"ip-172-31-18-192.117502"
)

Pstream initialised with:
    floatTransfer      : false
    nProcsSimpleSum    : 0
    commsType          : nonBlocking
    polling iterations : 0
sigFpe : Enabling floating point exception trapping (FOAM_SIGFPE).
fileModificationChecking : Monitoring run-time modified files using timeStampMaster (fileModificationSkew 10)
allowSystemOperations : Allowing user-supplied system call operations

// * * * * * * * * * * * * * * * * * * * * * * * * * * * * * * * * * * * * * //
Create time

Create mesh for time = 0

Selecting solver incompressibleFluid
Selecting viscosity model Newtonian
Selecting turbulence model type laminar
Selecting laminar stress model Stokes
No MRF models present


SIMPLE: Convergence criteria found
        p: tolerance 1e-05
        U: tolerance 1e-05


SIMPLE: Operating solver in steady-state mode with 1 outer corrector
SIMPLE: Operating solver in SIMPLE mode



Starting time loop

wallShearStress wallShearStress:
    processing wall patches: 
        wall-fluid_domain

Time = 1s

smoothSolver:  Solving for Ux, Initial residual = 1, Final residual = 0.04457541, No Iterations 1
smoothSolver:  Solving for Uy, Initial residual = 1, Final residual = 0.047073852, No Iterations 1
smoothSolver:  Solving for Uz, Initial residual = 1, Final residual = 0.010887827, No Iterations 1
GAMG:  Solving for p, Initial residual = 1, Final residual = 0.0073138521, No Iterations 10
time step continuity errors : sum local = 0.00029886929, global = -7.1362437e-06, cumulative = -7.1362437e-06
ExecutionTime = 0.526934 s  ClockTime = 0 s

Time = 2s

smoothSolver:  Solving for Ux, Initial residual = 0.26460016, Final residual = 0.015067811, No Iterations 2
smoothSolver:  Solving for Uy, Initial residual = 0.37080094, Final residual = 0.018532644, No Iterations 2
smoothSolver:  Solving for Uz, Initial residual = 0.24339188, Final residual = 0.014988972, No Iterations 2
GAMG:  Solving for p, Initial residual = 0.38751943, Final residual = 0.0034912445, No Iterations 6
time step continuity errors : sum local = 0.0084940165, global = -0.00025918225, cumulative = -0.0002663185
ExecutionTime = 0.676041 s  ClockTime = 1 s

Time = 3s

smoothSolver:  Solving for Ux, Initial residual = 0.22364064, Final residual = 0.022305974, No Iterations 2
smoothSolver:  Solving for Uy, Initial residual = 0.1425399, Final residual = 0.0089880299, No Iterations 2
smoothSolver:  Solving for Uz, Initial residual = 0.49473917, Final residual = 0.017995235, No Iterations 3
GAMG:  Solving for p, Initial residual = 0.12913962, Final residual = 0.00096020866, No Iterations 3
time step continuity errors : sum local = 0.015903067, global = -3.6354539e-05, cumulative = -0.00030267304
ExecutionTime = 0.800887 s  ClockTime = 1 s

Time = 4s

smoothSolver:  Solving for Ux, Initial residual = 0.15116756, Final residual = 0.0051284535, No Iterations 3
smoothSolver:  Solving for Uy, Initial residual = 0.07579403, Final residual = 0.0048353359, No Iterations 2
smoothSolver:  Solving for Uz, Initial residual = 0.3492828, Final residual = 0.012714058, No Iterations 3
GAMG:  Solving for p, Initial residual = 0.09096178, Final residual = 0.00072324415, No Iterations 5
time step continuity errors : sum local = 0.012564768, global = 3.1287877e-05, cumulative = -0.00027138516
ExecutionTime = 0.941415 s  ClockTime = 1 s

Time = 5s

smoothSolver:  Solving for Ux, Initial residual = 0.091752074, Final residual = 0.0089267596, No Iterations 2
smoothSolver:  Solving for Uy, Initial residual = 0.17074522, Final residual = 0.012135285, No Iterations 2
smoothSolver:  Solving for Uz, Initial residual = 0.14758337, Final residual = 0.0053734697, No Iterations 3
GAMG:  Solving for p, Initial residual = 0.065401506, Final residual = 0.00063729623, No Iterations 6
time step continuity errors : sum local = 0.0058287604, global = 0.00025223858, cumulative = -1.914658e-05
ExecutionTime = 1.086181 s  ClockTime = 1 s

Time = 6s

smoothSolver:  Solving for Ux, Initial residual = 0.083364627, Final residual = 0.006662012, No Iterations 2
smoothSolver:  Solving for Uy, Initial residual = 0.40282563, Final residual = 0.027985232, No Iterations 2
smoothSolver:  Solving for Uz, Initial residual = 0.057750321, Final residual = 0.0020104827, No Iterations 3
GAMG:  Solving for p, Initial residual = 0.41077635, Final residual = 0.0020378922, No Iterations 5
time step continuity errors : sum local = 0.0084987814, global = -0.00013311923, cumulative = -0.00015226581
ExecutionTime = 1.224586 s  ClockTime = 1 s

Time = 7s

smoothSolver:  Solving for Ux, Initial residual = 0.13052554, Final residual = 0.012278665, No Iterations 2
smoothSolver:  Solving for Uy, Initial residual = 0.26615401, Final residual = 0.017959978, No Iterations 2
smoothSolver:  Solving for Uz, Initial residual = 0.21156154, Final residual = 0.0077234108, No Iterations 3
GAMG:  Solving for p, Initial residual = 0.22348599, Final residual = 0.0018454103, No Iterations 3
time step continuity errors : sum local = 0.016883075, global = -0.0002431329, cumulative = -0.00039539871
ExecutionTime = 1.348485 s  ClockTime = 1 s

Time = 8s

smoothSolver:  Solving for Ux, Initial residual = 0.11670685, Final residual = 0.0037434548, No Iterations 3
smoothSolver:  Solving for Uy, Initial residual = 0.1412533, Final residual = 0.009775944, No Iterations 2
smoothSolver:  Solving for Uz, Initial residual = 0.23833529, Final residual = 0.008698154, No Iterations 3
GAMG:  Solving for p, Initial residual = 0.17337878, Final residual = 0.00087068114, No Iterations 5
time step continuity errors : sum local = 0.0071082537, global = -1.2804601e-05, cumulative = -0.00040820331
ExecutionTime = 1.487726 s  ClockTime = 1 s

Time = 9s

smoothSolver:  Solving for Ux, Initial residual = 0.076976241, Final residual = 0.0073834042, No Iterations 2
smoothSolver:  Solving for Uy, Initial residual = 0.23762933, Final residual = 0.019275313, No Iterations 2
smoothSolver:  Solving for Uz, Initial residual = 0.089307759, Final residual = 0.0032221238, No Iterations 3
GAMG:  Solving for p, Initial residual = 0.17056935, Final residual = 0.00080399291, No Iterations 6
time step continuity errors : sum local = 0.0027405734, global = -9.4488758e-05, cumulative = -0.00050269207
ExecutionTime = 1.632836 s  ClockTime = 1 s

Time = 10s

smoothSolver:  Solving for Ux, Initial residual = 0.075942217, Final residual = 0.0066763506, No Iterations 2
smoothSolver:  Solving for Uy, Initial residual = 0.40363883, Final residual = 0.030535257, No Iterations 2
smoothSolver:  Solving for Uz, Initial residual = 0.065903639, Final residual = 0.0023850963, No Iterations 3
GAMG:  Solving for p, Initial residual = 0.28125392, Final residual = 0.0012188889, No Iterations 5
time step continuity errors : sum local = 0.0033726565, global = 2.2841054e-05, cumulative = -0.00047985102
ExecutionTime = 1.770496 s  ClockTime = 2 s

Time = 11s

smoothSolver:  Solving for Ux, Initial residual = 0.077971324, Final residual = 0.0074938891, No Iterations 2
smoothSolver:  Solving for Uy, Initial residual = 0.24564571, Final residual = 0.017412069, No Iterations 2
smoothSolver:  Solving for Uz, Initial residual = 0.10975511, Final residual = 0.0040155837, No Iterations 3
GAMG:  Solving for p, Initial residual = 0.19051788, Final residual = 0.0012050067, No Iterations 4
time step continuity errors : sum local = 0.0054833623, global = 1.8574405e-05, cumulative = -0.00046127661
ExecutionTime = 1.900652 s  ClockTime = 2 s

Time = 12s

smoothSolver:  Solving for Ux, Initial residual = 0.051231697, Final residual = 0.0016790746, No Iterations 3
smoothSolver:  Solving for Uy, Initial residual = 0.15041226, Final residual = 0.011908651, No Iterations 2
smoothSolver:  Solving for Uz, Initial residual = 0.077849368, Final residual = 0.00284335, No Iterations 3
GAMG:  Solving for p, Initial residual = 0.15160821, Final residual = 0.0010346856, No Iterations 5
time step continuity errors : sum local = 0.003654465, global = -2.7215376e-06, cumulative = -0.00046399815
ExecutionTime = 2.039646 s  ClockTime = 2 s

Time = 13s

smoothSolver:  Solving for Ux, Initial residual = 0.031002322, Final residual = 0.0028925624, No Iterations 2
smoothSolver:  Solving for Uy, Initial residual = 0.30136786, Final residual = 0.025803738, No Iterations 2
smoothSolver:  Solving for Uz, Initial residual = 0.018656592, Final residual = 0.0006312083, No Iterations 3
GAMG:  Solving for p, Initial residual = 0.23374593, Final residual = 0.0010217712, No Iterations 6
time step continuity errors : sum local = 0.0011959896, global = 4.9373586e-05, cumulative = -0.00041462456
ExecutionTime = 2.185656 s  ClockTime = 2 s

Time = 14s

smoothSolver:  Solving for Ux, Initial residual = 0.036448423, Final residual = 0.0033561217, No Iterations 2
smoothSolver:  Solving for Uy, Initial residual = 0.34591568, Final residual = 0.027575159, No Iterations 2
smoothSolver:  Solving for Uz, Initial residual = 0.036567541, Final residual = 0.0013324389, No Iterations 3
GAMG:  Solving for p, Initial residual = 0.25642342, Final residual = 0.0019582042, No Iterations 4
time step continuity errors : sum local = 0.0032583244, global = 5.3040574e-05, cumulative = -0.00036158399
ExecutionTime = 2.316943 s  ClockTime = 2 s

Time = 15s

smoothSolver:  Solving for Ux, Initial residual = 0.036971359, Final residual = 0.0036127434, No Iterations 2
smoothSolver:  Solving for Uy, Initial residual = 0.1937916, Final residual = 0.014387864, No Iterations 2
smoothSolver:  Solving for Uz, Initial residual = 0.053842677, Final residual = 0.0019670503, No Iterations 3
GAMG:  Solving for p, Initial residual = 0.18818591, Final residual = 0.001474634, No Iterations 4
time step continuity errors : sum local = 0.0032011206, global = -1.5316086e-05, cumulative = -0.00037690008
ExecutionTime = 2.448681 s  ClockTime = 2 s

Time = 16s

smoothSolver:  Solving for Ux, Initial residual = 0.026160761, Final residual = 0.00085810228, No Iterations 3
smoothSolver:  Solving for Uy, Initial residual = 0.14635539, Final residual = 0.012654226, No Iterations 2
smoothSolver:  Solving for Uz, Initial residual = 0.035577614, Final residual = 0.0012933694, No Iterations 3
GAMG:  Solving for p, Initial residual = 0.15127712, Final residual = 0.0012031953, No Iterations 5
time step continuity errors : sum local = 0.0017890204, global = 2.3686838e-07, cumulative = -0.00037666321
ExecutionTime = 2.588447 s  ClockTime = 2 s

Time = 17s

smoothSolver:  Solving for Ux, Initial residual = 0.016971503, Final residual = 0.0015133191, No Iterations 2
smoothSolver:  Solving for Uy, Initial residual = 0.28219237, Final residual = 0.024622487, No Iterations 2
smoothSolver:  Solving for Uz, Initial residual = 0.0071955194, Final residual = 0.00066133816, No Iterations 2
GAMG:  Solving for p, Initial residual = 0.43098091, Final residual = 0.0038590946, No Iterations 5
time step continuity errors : sum local = 0.0013033346, global = 9.0186982e-06, cumulative = -0.00036764451
ExecutionTime = 2.726653 s  ClockTime = 3 s

Time = 18s

smoothSolver:  Solving for Ux, Initial residual = 0.020454433, Final residual = 0.001944936, No Iterations 2
smoothSolver:  Solving for Uy, Initial residual = 0.26280053, Final residual = 0.021411447, No Iterations 2
smoothSolver:  Solving for Uz, Initial residual = 0.021902032, Final residual = 0.00080500044, No Iterations 3
GAMG:  Solving for p, Initial residual = 0.21216519, Final residual = 0.001403466, No Iterations 4
time step continuity errors : sum local = 0.0014061033, global = -1.4435319e-05, cumulative = -0.00038207983
ExecutionTime = 2.857634 s  ClockTime = 3 s

Time = 19s

smoothSolver:  Solving for Ux, Initial residual = 0.017535194, Final residual = 0.00055994695, No Iterations 3
smoothSolver:  Solving for Uy, Initial residual = 0.14722778, Final residual = 0.011523247, No Iterations 2
smoothSolver:  Solving for Uz, Initial residual = 0.024274955, Final residual = 0.00089222848, No Iterations 3
GAMG:  Solving for p, Initial residual = 0.16426163, Final residual = 0.0015833635, No Iterations 4
time step continuity errors : sum local = 0.0017483808, global = 1.545032e-05, cumulative = -0.00036662951
ExecutionTime = 2.988939 s  ClockTime = 3 s

Time = 20s

smoothSolver:  Solving for Ux, Initial residual = 0.012014642, Final residual = 0.00040245363, No Iterations 3
smoothSolver:  Solving for Uy, Initial residual = 0.13815805, Final residual = 0.012722286, No Iterations 2
smoothSolver:  Solving for Uz, Initial residual = 0.013023751, Final residual = 0.00047668928, No Iterations 3
GAMG:  Solving for p, Initial residual = 0.12934047, Final residual = 0.0011944958, No Iterations 5
time step continuity errors : sum local = 0.00084188599, global = -3.0070831e-06, cumulative = -0.00036963659
ExecutionTime = 3.128254 s  ClockTime = 3 s

Time = 21s

smoothSolver:  Solving for Ux, Initial residual = 0.0089019178, Final residual = 0.00081955058, No Iterations 2
smoothSolver:  Solving for Uy, Initial residual = 0.20371696, Final residual = 0.018152905, No Iterations 2
smoothSolver:  Solving for Uz, Initial residual = 0.004220892, Final residual = 0.00041714517, No Iterations 2
GAMG:  Solving for p, Initial residual = 0.33915195, Final residual = 0.0023028233, No Iterations 5
time step continuity errors : sum local = 0.00054010424, global = -4.8335729e-06, cumulative = -0.00037447017
ExecutionTime = 3.265832 s  ClockTime = 3 s

Time = 22s

smoothSolver:  Solving for Ux, Initial residual = 0.0097386296, Final residual = 0.00092711411, No Iterations 2
smoothSolver:  Solving for Uy, Initial residual = 0.16228714, Final residual = 0.013577344, No Iterations 2
smoothSolver:  Solving for Uz, Initial residual = 0.01127143, Final residual = 0.00040847299, No Iterations 3
GAMG:  Solving for p, Initial residual = 0.19308934, Final residual = 0.0011371487, No Iterations 4
time step continuity errors : sum local = 0.00061830919, global = 7.936642e-06, cumulative = -0.00036653352
ExecutionTime = 3.396501 s  ClockTime = 3 s

Time = 23s

smoothSolver:  Solving for Ux, Initial residual = 0.0077140406, Final residual = 0.00076732571, No Iterations 2
smoothSolver:  Solving for Uy, Initial residual = 0.091095349, Final residual = 0.0075190605, No Iterations 2
smoothSolver:  Solving for Uz, Initial residual = 0.011021912, Final residual = 0.0003988729, No Iterations 3
GAMG:  Solving for p, Initial residual = 0.15238697, Final residual = 0.00071247358, No Iterations 5
time step continuity errors : sum local = 0.00037852392, global = -3.0603863e-06, cumulative = -0.00036959391
ExecutionTime = 3.534626 s  ClockTime = 3 s

Time = 24s

smoothSolver:  Solving for Ux, Initial residual = 0.0056413732, Final residual = 0.0001782832, No Iterations 3
smoothSolver:  Solving for Uy, Initial residual = 0.099676303, Final residual = 0.00937848, No Iterations 2
smoothSolver:  Solving for Uz, Initial residual = 0.0047780453, Final residual = 0.00016720814, No Iterations 3
GAMG:  Solving for p, Initial residual = 0.13112512, Final residual = 0.0012638511, No Iterations 5
time step continuity errors : sum local = 0.00038596199, global = 1.1565575e-06, cumulative = -0.00036843735
ExecutionTime = 3.673777 s  ClockTime = 4 s

Time = 25s

smoothSolver:  Solving for Ux, Initial residual = 0.005437776, Final residual = 0.00052672887, No Iterations 2
smoothSolver:  Solving for Uy, Initial residual = 0.12318861, Final residual = 0.011169014, No Iterations 2
smoothSolver:  Solving for Uz, Initial residual = 0.0037473302, Final residual = 0.0001329, No Iterations 3
GAMG:  Solving for p, Initial residual = 0.16168456, Final residual = 0.00080483201, No Iterations 5
time step continuity errors : sum local = 0.0002191941, global = 8.9195619e-07, cumulative = -0.0003675454
ExecutionTime = 3.812399 s  ClockTime = 4 s

Time = 26s

smoothSolver:  Solving for Ux, Initial residual = 0.0055590528, Final residual = 0.00017832416, No Iterations 3
smoothSolver:  Solving for Uy, Initial residual = 0.092947902, Final residual = 0.0081665417, No Iterations 2
smoothSolver:  Solving for Uz, Initial residual = 0.0062376627, Final residual = 0.00023032737, No Iterations 3
GAMG:  Solving for p, Initial residual = 0.12986263, Final residual = 0.00082402117, No Iterations 4
time step continuity errors : sum local = 0.00032240473, global = 7.2718411e-07, cumulative = -0.00036681821
ExecutionTime = 3.945612 s  ClockTime = 4 s

Time = 27s

smoothSolver:  Solving for Ux, Initial residual = 0.0044833341, Final residual = 0.00015330447, No Iterations 3
smoothSolver:  Solving for Uy, Initial residual = 0.058894108, Final residual = 0.0055074805, No Iterations 2
smoothSolver:  Solving for Uz, Initial residual = 0.0052478026, Final residual = 0.00019337417, No Iterations 3
GAMG:  Solving for p, Initial residual = 0.098441336, Final residual = 0.0005431039, No Iterations 5
time step continuity errors : sum local = 0.00019705041, global = 7.0315033e-07, cumulative = -0.00036611506
ExecutionTime = 4.085195 s  ClockTime = 4 s

Time = 28s

smoothSolver:  Solving for Ux, Initial residual = 0.0038566949, Final residual = 0.00012882068, No Iterations 3
smoothSolver:  Solving for Uy, Initial residual = 0.065240505, Final residual = 0.0063576008, No Iterations 2
smoothSolver:  Solving for Uz, Initial residual = 0.0027553299, Final residual = 9.721088e-05, No Iterations 3
GAMG:  Solving for p, Initial residual = 0.080834408, Final residual = 0.00070419243, No Iterations 5
time step continuity errors : sum local = 0.00017439191, global = -1.0655739e-06, cumulative = -0.00036718064
ExecutionTime = 4.22498 s  ClockTime = 4 s

Time = 29s

smoothSolver:  Solving for Ux, Initial residual = 0.0034229796, Final residual = 0.00033959355, No Iterations 2
smoothSolver:  Solving for Uy, Initial residual = 0.067692846, Final residual = 0.0063457177, No Iterations 2
smoothSolver:  Solving for Uz, Initial residual = 0.0023914602, Final residual = 8.1070992e-05, No Iterations 3
GAMG:  Solving for p, Initial residual = 0.13353137, Final residual = 0.0012077993, No Iterations 4
time step continuity errors : sum local = 0.00022899899, global = 3.8052786e-06, cumulative = -0.00036337536
ExecutionTime = 4.356241 s  ClockTime = 4 s

Time = 30s

smoothSolver:  Solving for Ux, Initial residual = 0.0029643944, Final residual = 9.3121525e-05, No Iterations 3
smoothSolver:  Solving for Uy, Initial residual = 0.050107204, Final residual = 0.0046818904, No Iterations 2
smoothSolver:  Solving for Uz, Initial residual = 0.0030435552, Final residual = 0.0001071655, No Iterations 3
GAMG:  Solving for p, Initial residual = 0.11385553, Final residual = 0.00082240973, No Iterations 4
time step continuity errors : sum local = 0.00018717304, global = -2.7254517e-07, cumulative = -0.0003636479
ExecutionTime = 4.488959 s  ClockTime = 4 s

Time = 31s

smoothSolver:  Solving for Ux, Initial residual = 0.002567003, Final residual = 8.4459415e-05, No Iterations 3
smoothSolver:  Solving for Uy, Initial residual = 0.038994787, Final residual = 0.0038952893, No Iterations 2
smoothSolver:  Solving for Uz, Initial residual = 0.0023414826, Final residual = 8.0921725e-05, No Iterations 3
GAMG:  Solving for p, Initial residual = 0.088084951, Final residual = 0.00049021617, No Iterations 5
time step continuity errors : sum local = 9.8732967e-05, global = -6.5303217e-07, cumulative = -0.00036430093
ExecutionTime = 4.630522 s  ClockTime = 5 s

Time = 32s

smoothSolver:  Solving for Ux, Initial residual = 0.0026946372, Final residual = 8.9708586e-05, No Iterations 3
smoothSolver:  Solving for Uy, Initial residual = 0.043562666, Final residual = 0.0013775277, No Iterations 3
smoothSolver:  Solving for Uz, Initial residual = 0.0019375994, Final residual = 6.7103615e-05, No Iterations 3
GAMG:  Solving for p, Initial residual = 0.068962442, Final residual = 0.00043237187, No Iterations 5
time step continuity errors : sum local = 7.864011e-05, global = -6.541389e-08, cumulative = -0.00036436635
ExecutionTime = 4.770997 s  ClockTime = 5 s

Time = 33s

smoothSolver:  Solving for Ux, Initial residual = 0.0028022329, Final residual = 9.4493498e-05, No Iterations 3
smoothSolver:  Solving for Uy, Initial residual = 0.041981031, Final residual = 0.0041499484, No Iterations 2
smoothSolver:  Solving for Uz, Initial residual = 0.0024005416, Final residual = 8.5905654e-05, No Iterations 3
GAMG:  Solving for p, Initial residual = 0.06511817, Final residual = 0.00052875813, No Iterations 4
time step continuity errors : sum local = 0.00012063826, global = -1.3017601e-06, cumulative = -0.00036566811
ExecutionTime = 4.902864 s  ClockTime = 5 s

Time = 34s

smoothSolver:  Solving for Ux, Initial residual = 0.0026355634, Final residual = 9.1233351e-05, No Iterations 3
smoothSolver:  Solving for Uy, Initial residual = 0.033983024, Final residual = 0.0010940253, No Iterations 3
smoothSolver:  Solving for Uz, Initial residual = 0.0025061751, Final residual = 9.0288593e-05, No Iterations 3
GAMG:  Solving for p, Initial residual = 0.057495085, Final residual = 0.00047967509, No Iterations 4
time step continuity errors : sum local = 0.00011541324, global = 6.9341731e-07, cumulative = -0.00036497469
ExecutionTime = 5.037172 s  ClockTime = 5 s

Time = 35s

smoothSolver:  Solving for Ux, Initial residual = 0.0024806569, Final residual = 8.6745744e-05, No Iterations 3
smoothSolver:  Solving for Uy, Initial residual = 0.030087802, Final residual = 0.0010075386, No Iterations 3
smoothSolver:  Solving for Uz, Initial residual = 0.0022073878, Final residual = 7.8755902e-05, No Iterations 3
GAMG:  Solving for p, Initial residual = 0.045166639, Final residual = 0.00023479447, No Iterations 5
time step continuity errors : sum local = 5.2871338e-05, global = 7.1985019e-08, cumulative = -0.00036490271
ExecutionTime = 5.178328 s  ClockTime = 5 s

Time = 36s

smoothSolver:  Solving for Ux, Initial residual = 0.0023911959, Final residual = 8.2241964e-05, No Iterations 3
smoothSolver:  Solving for Uy, Initial residual = 0.030407824, Final residual = 0.0010033268, No Iterations 3
smoothSolver:  Solving for Uz, Initial residual = 0.0018737713, Final residual = 6.5749946e-05, No Iterations 3
GAMG:  Solving for p, Initial residual = 0.046833555, Final residual = 0.00021172832, No Iterations 5
time step continuity errors : sum local = 4.2061399e-05, global = 1.1327056e-07, cumulative = -0.00036478944
ExecutionTime = 5.319333 s  ClockTime = 5 s

Time = 37s

smoothSolver:  Solving for Ux, Initial residual = 0.0022669302, Final residual = 7.7346599e-05, No Iterations 3
smoothSolver:  Solving for Uy, Initial residual = 0.028624637, Final residual = 0.00094152261, No Iterations 3
smoothSolver:  Solving for Uz, Initial residual = 0.0017427956, Final residual = 6.0503907e-05, No Iterations 3
GAMG:  Solving for p, Initial residual = 0.056929737, Final residual = 0.00045451294, No Iterations 4
time step continuity errors : sum local = 8.2245739e-05, global = 1.2794634e-06, cumulative = -0.00036350997
ExecutionTime = 5.454067 s  ClockTime = 5 s

Time = 38s

smoothSolver:  Solving for Ux, Initial residual = 0.0021690684, Final residual = 7.4662365e-05, No Iterations 3
smoothSolver:  Solving for Uy, Initial residual = 0.025941344, Final residual = 0.00087560493, No Iterations 3
smoothSolver:  Solving for Uz, Initial residual = 0.0017146329, Final residual = 5.9602287e-05, No Iterations 3
GAMG:  Solving for p, Initial residual = 0.052317872, Final residual = 0.0004485506, No Iterations 4
time step continuity errors : sum local = 8.0733448e-05, global = -3.3016252e-07, cumulative = -0.00036384013
ExecutionTime = 5.589467 s  ClockTime = 5 s

Time = 39s

smoothSolver:  Solving for Ux, Initial residual = 0.0021642535, Final residual = 7.499505e-05, No Iterations 3
smoothSolver:  Solving for Uy, Initial residual = 0.025292043, Final residual = 0.00086507586, No Iterations 3
smoothSolver:  Solving for Uz, Initial residual = 0.0017400351, Final residual = 6.0919131e-05, No Iterations 3
GAMG:  Solving for p, Initial residual = 0.041647385, Final residual = 0.00017804847, No Iterations 5
time step continuity errors : sum local = 3.3830957e-05, global = -4.6673181e-07, cumulative = -0.00036430687
ExecutionTime = 5.730641 s  ClockTime = 6 s

Time = 40s

smoothSolver:  Solving for Ux, Initial residual = 0.0021924353, Final residual = 7.6189188e-05, No Iterations 3
smoothSolver:  Solving for Uy, Initial residual = 0.025134544, Final residual = 0.00085581223, No Iterations 3
smoothSolver:  Solving for Uz, Initial residual = 0.0018187504, Final residual = 6.4259599e-05, No Iterations 3
GAMG:  Solving for p, Initial residual = 0.037629113, Final residual = 0.00037191934, No Iterations 4
time step continuity errors : sum local = 7.5775803e-05, global = -5.4835462e-07, cumulative = -0.00036485522
ExecutionTime = 5.864926 s  ClockTime = 6 s

Time = 41s

smoothSolver:  Solving for Ux, Initial residual = 0.0021803704, Final residual = 7.6101344e-05, No Iterations 3
smoothSolver:  Solving for Uy, Initial residual = 0.023917255, Final residual = 0.00081668333, No Iterations 3
smoothSolver:  Solving for Uz, Initial residual = 0.0018630631, Final residual = 6.6140454e-05, No Iterations 3
GAMG:  Solving for p, Initial residual = 0.036554763, Final residual = 0.0002307404, No Iterations 4
time step continuity errors : sum local = 4.8923595e-05, global = -1.1599707e-07, cumulative = -0.00036497122
ExecutionTime = 5.997908 s  ClockTime = 6 s

Time = 42s

smoothSolver:  Solving for Ux, Initial residual = 0.002146323, Final residual = 7.5122002e-05, No Iterations 3
smoothSolver:  Solving for Uy, Initial residual = 0.022545637, Final residual = 0.00077564803, No Iterations 3
smoothSolver:  Solving for Uz, Initial residual = 0.0018381255, Final residual = 6.5259892e-05, No Iterations 3
GAMG:  Solving for p, Initial residual = 0.034337868, Final residual = 0.00032275191, No Iterations 4
time step continuity errors : sum local = 6.8818081e-05, global = 5.7872393e-07, cumulative = -0.00036439249
ExecutionTime = 6.130753 s  ClockTime = 6 s

Time = 43s

smoothSolver:  Solving for Ux, Initial residual = 0.0021207067, Final residual = 7.4095243e-05, No Iterations 3
smoothSolver:  Solving for Uy, Initial residual = 0.02175899, Final residual = 0.0007490118, No Iterations 3
smoothSolver:  Solving for Uz, Initial residual = 0.001766165, Final residual = 6.249161e-05, No Iterations 3
GAMG:  Solving for p, Initial residual = 0.033127507, Final residual = 0.00013440848, No Iterations 5
time step continuity errors : sum local = 2.8161717e-05, global = 3.2589175e-07, cumulative = -0.0003640666
ExecutionTime = 6.271836 s  ClockTime = 6 s

Time = 44s

smoothSolver:  Solving for Ux, Initial residual = 0.0020947647, Final residual = 7.2909167e-05, No Iterations 3
smoothSolver:  Solving for Uy, Initial residual = 0.021193566, Final residual = 0.00072708911, No Iterations 3
smoothSolver:  Solving for Uz, Initial residual = 0.0016942724, Final residual = 5.9701638e-05, No Iterations 3
GAMG:  Solving for p, Initial residual = 0.034053697, Final residual = 0.00031910362, No Iterations 4
time step continuity errors : sum local = 6.5282509e-05, global = 8.5402012e-07, cumulative = -0.00036321258
ExecutionTime = 6.405544 s  ClockTime = 6 s

Time = 45s

smoothSolver:  Solving for Ux, Initial residual = 0.0020676394, Final residual = 7.1877159e-05, No Iterations 3
smoothSolver:  Solving for Uy, Initial residual = 0.020491581, Final residual = 0.00070413595, No Iterations 3
smoothSolver:  Solving for Uz, Initial residual = 0.0016560272, Final residual = 5.8253468e-05, No Iterations 3
GAMG:  Solving for p, Initial residual = 0.034339747, Final residual = 0.00019377024, No Iterations 4
time step continuity errors : sum local = 3.9282883e-05, global = 5.7659721e-07, cumulative = -0.00036263599
ExecutionTime = 6.540412 s  ClockTime = 6 s

Time = 46s

smoothSolver:  Solving for Ux, Initial residual = 0.0020492868, Final residual = 7.1232846e-05, No Iterations 3
smoothSolver:  Solving for Uy, Initial residual = 0.01986926, Final residual = 0.00068481011, No Iterations 3
smoothSolver:  Solving for Uz, Initial residual = 0.0016404191, Final residual = 5.7721322e-05, No Iterations 3
GAMG:  Solving for p, Initial residual = 0.033149994, Final residual = 0.0002684991, No Iterations 4
time step continuity errors : sum local = 5.4730004e-05, global = -2.860903e-07, cumulative = -0.00036292208
ExecutionTime = 6.674322 s  ClockTime = 7 s

Time = 47s

smoothSolver:  Solving for Ux, Initial residual = 0.0020415756, Final residual = 7.0961495e-05, No Iterations 3
smoothSolver:  Solving for Uy, Initial residual = 0.019382004, Final residual = 0.00066862669, No Iterations 3
smoothSolver:  Solving for Uz, Initial residual = 0.0016410437, Final residual = 5.7832454e-05, No Iterations 3
GAMG:  Solving for p, Initial residual = 0.031666484, Final residual = 0.00027495376, No Iterations 4
time step continuity errors : sum local = 5.6930175e-05, global = -4.1236046e-07, cumulative = -0.00036333444
ExecutionTime = 6.807799 s  ClockTime = 7 s

Time = 48s

smoothSolver:  Solving for Ux, Initial residual = 0.0020371871, Final residual = 7.0815981e-05, No Iterations 3
smoothSolver:  Solving for Uy, Initial residual = 0.018869086, Final residual = 0.00065061561, No Iterations 3
smoothSolver:  Solving for Uz, Initial residual = 0.001645018, Final residual = 5.8077682e-05, No Iterations 3
GAMG:  Solving for p, Initial residual = 0.030708659, Final residual = 0.00024586053, No Iterations 4
time step continuity errors : sum local = 5.1801974e-05, global = -3.1525081e-07, cumulative = -0.00036364969
ExecutionTime = 6.941637 s  ClockTime = 7 s

Time = 49s

smoothSolver:  Solving for Ux, Initial residual = 0.0020300448, Final residual = 7.059444e-05, No Iterations 3
smoothSolver:  Solving for Uy, Initial residual = 0.018300688, Final residual = 0.00063083351, No Iterations 3
smoothSolver:  Solving for Uz, Initial residual = 0.0016387319, Final residual = 5.7927539e-05, No Iterations 3
GAMG:  Solving for p, Initial residual = 0.030145451, Final residual = 0.00015605839, No Iterations 4
time step continuity errors : sum local = 3.3265352e-05, global = 1.5289838e-07, cumulative = -0.00036349679
ExecutionTime = 7.074561 s  ClockTime = 7 s

Time = 50s

smoothSolver:  Solving for Ux, Initial residual = 0.0020207345, Final residual = 7.0272795e-05, No Iterations 3
smoothSolver:  Solving for Uy, Initial residual = 0.017756908, Final residual = 0.00061201845, No Iterations 3
smoothSolver:  Solving for Uz, Initial residual = 0.0016212226, Final residual = 5.7321755e-05, No Iterations 3
GAMG:  Solving for p, Initial residual = 0.029509704, Final residual = 0.00023566189, No Iterations 4
time step continuity errors : sum local = 5.0495739e-05, global = 4.7765802e-07, cumulative = -0.00036301913
ExecutionTime = 7.206283 s  ClockTime = 7 s

Time = 51s

smoothSolver:  Solving for Ux, Initial residual = 0.0020125872, Final residual = 6.9980944e-05, No Iterations 3
smoothSolver:  Solving for Uy, Initial residual = 0.017269734, Final residual = 0.00059533165, No Iterations 3
smoothSolver:  Solving for Uz, Initial residual = 0.0015953912, Final residual = 5.6375435e-05, No Iterations 3
GAMG:  Solving for p, Initial residual = 0.029054701, Final residual = 0.00024979644, No Iterations 4
time step continuity errors : sum local = 5.35522e-05, global = 5.6656782e-07, cumulative = -0.00036245256
ExecutionTime = 7.341504 s  ClockTime = 7 s

Time = 52s

smoothSolver:  Solving for Ux, Initial residual = 0.0020026821, Final residual = 6.9664286e-05, No Iterations 3
smoothSolver:  Solving for Uy, Initial residual = 0.016811641, Final residual = 0.00057959693, No Iterations 3
smoothSolver:  Solving for Uz, Initial residual = 0.0015672158, Final residual = 5.5344071e-05, No Iterations 3
GAMG:  Solving for p, Initial residual = 0.028916637, Final residual = 0.00024151201, No Iterations 4
time step continuity errors : sum local = 5.1697412e-05, global = 6.1116732e-07, cumulative = -0.0003618414
ExecutionTime = 7.475267 s  ClockTime = 7 s

Time = 53s

smoothSolver:  Solving for Ux, Initial residual = 0.0019916638, Final residual = 6.9355836e-05, No Iterations 3
smoothSolver:  Solving for Uy, Initial residual = 0.016368798, Final residual = 0.00056469391, No Iterations 3
smoothSolver:  Solving for Uz, Initial residual = 0.0015438862, Final residual = 5.4524537e-05, No Iterations 3
GAMG:  Solving for p, Initial residual = 0.028775299, Final residual = 0.00016277743, No Iterations 4
time step continuity errors : sum local = 3.4852683e-05, global = 8.0895661e-07, cumulative = -0.00036103244
ExecutionTime = 7.609602 s  ClockTime = 8 s

Time = 54s

smoothSolver:  Solving for Ux, Initial residual = 0.0019813039, Final residual = 6.9071532e-05, No Iterations 3
smoothSolver:  Solving for Uy, Initial residual = 0.015946789, Final residual = 0.00055077642, No Iterations 3
smoothSolver:  Solving for Uz, Initial residual = 0.0015269249, Final residual = 5.3956398e-05, No Iterations 3
GAMG:  Solving for p, Initial residual = 0.028493705, Final residual = 0.00027954147, No Iterations 3
time step continuity errors : sum local = 6.0057377e-05, global = 8.1396178e-07, cumulative = -0.00036021848
ExecutionTime = 7.735702 s  ClockTime = 8 s

Time = 55s

smoothSolver:  Solving for Ux, Initial residual = 0.0019697581, Final residual = 6.871642e-05, No Iterations 3
smoothSolver:  Solving for Uy, Initial residual = 0.015539505, Final residual = 0.00053731106, No Iterations 3
smoothSolver:  Solving for Uz, Initial residual = 0.0015134309, Final residual = 5.3516643e-05, No Iterations 3
GAMG:  Solving for p, Initial residual = 0.028165799, Final residual = 0.00019915389, No Iterations 4
time step continuity errors : sum local = 4.3007678e-05, global = 2.6138521e-07, cumulative = -0.00035995709
ExecutionTime = 7.869268 s  ClockTime = 8 s

Time = 56s

smoothSolver:  Solving for Ux, Initial residual = 0.0019656493, Final residual = 6.8629457e-05, No Iterations 3
smoothSolver:  Solving for Uy, Initial residual = 0.015175648, Final residual = 0.00052510187, No Iterations 3
smoothSolver:  Solving for Uz, Initial residual = 0.0015032445, Final residual = 5.3197267e-05, No Iterations 3
GAMG:  Solving for p, Initial residual = 0.027722891, Final residual = 0.00018867737, No Iterations 4
time step continuity errors : sum local = 4.1025863e-05, global = 1.8577501e-07, cumulative = -0.00035977132
ExecutionTime = 8.003305 s  ClockTime = 8 s

Time = 57s

smoothSolver:  Solving for Ux, Initial residual = 0.0019620693, Final residual = 6.8544895e-05, No Iterations 3
smoothSolver:  Solving for Uy, Initial residual = 0.014823665, Final residual = 0.00051311178, No Iterations 3
smoothSolver:  Solving for Uz, Initial residual = 0.0014931825, Final residual = 5.2888569e-05, No Iterations 3
GAMG:  Solving for p, Initial residual = 0.027256393, Final residual = 0.00026565616, No Iterations 3
time step continuity errors : sum local = 5.8172465e-05, global = 4.6828695e-07, cumulative = -0.00035930303
ExecutionTime = 8.130015 s  ClockTime = 8 s

Time = 58s

smoothSolver:  Solving for Ux, Initial residual = 0.0019528478, Final residual = 6.8246433e-05, No Iterations 3
smoothSolver:  Solving for Uy, Initial residual = 0.014455422, Final residual = 0.0005007031, No Iterations 3
smoothSolver:  Solving for Uz, Initial residual = 0.001480047, Final residual = 5.2461864e-05, No Iterations 3
GAMG:  Solving for p, Initial residual = 0.026844052, Final residual = 0.00026449731, No Iterations 3
time step continuity errors : sum local = 5.8232598e-05, global = 7.3111856e-07, cumulative = -0.00035857191
ExecutionTime = 8.255495 s  ClockTime = 8 s

Time = 59s

smoothSolver:  Solving for Ux, Initial residual = 0.0019446353, Final residual = 6.7965783e-05, No Iterations 3
smoothSolver:  Solving for Uy, Initial residual = 0.014088547, Final residual = 0.00048845296, No Iterations 3
smoothSolver:  Solving for Uz, Initial residual = 0.0014656538, Final residual = 5.1981347e-05, No Iterations 3
GAMG:  Solving for p, Initial residual = 0.026549473, Final residual = 0.00016420807, No Iterations 4
time step continuity errors : sum local = 3.632945e-05, global = 5.2090311e-07, cumulative = -0.00035805101
ExecutionTime = 8.387636 s  ClockTime = 8 s

Time = 60s

smoothSolver:  Solving for Ux, Initial residual = 0.0019404688, Final residual = 6.7831917e-05, No Iterations 3
smoothSolver:  Solving for Uy, Initial residual = 0.01373908, Final residual = 0.00047669924, No Iterations 3
smoothSolver:  Solving for Uz, Initial residual = 0.0014491277, Final residual = 5.1399449e-05, No Iterations 3
GAMG:  Solving for p, Initial residual = 0.026288412, Final residual = 0.00017140759, No Iterations 4
time step continuity errors : sum local = 3.8072995e-05, global = 5.5775905e-07, cumulative = -0.00035749325
ExecutionTime = 8.521585 s  ClockTime = 8 s

Time = 61s

smoothSolver:  Solving for Ux, Initial residual = 0.0019343152, Final residual = 6.7622659e-05, No Iterations 3
smoothSolver:  Solving for Uy, Initial residual = 0.013411252, Final residual = 0.00046575284, No Iterations 3
smoothSolver:  Solving for Uz, Initial residual = 0.0014325144, Final residual = 5.0810188e-05, No Iterations 3
GAMG:  Solving for p, Initial residual = 0.026105249, Final residual = 0.00016338777, No Iterations 4
time step continuity errors : sum local = 3.640613e-05, global = 5.6492754e-07, cumulative = -0.00035692832
ExecutionTime = 8.654225 s  ClockTime = 9 s

Time = 62s

smoothSolver:  Solving for Ux, Initial residual = 0.0019261222, Final residual = 6.7330317e-05, No Iterations 3
smoothSolver:  Solving for Uy, Initial residual = 0.013111197, Final residual = 0.00045578439, No Iterations 3
smoothSolver:  Solving for Uz, Initial residual = 0.0014170864, Final residual = 5.0266585e-05, No Iterations 3
GAMG:  Solving for p, Initial residual = 0.025822563, Final residual = 0.00025339942, No Iterations 3
time step continuity errors : sum local = 5.6627742e-05, global = 1.0116881e-06, cumulative = -0.00035591663
ExecutionTime = 8.780681 s  ClockTime = 9 s

Time = 63s

smoothSolver:  Solving for Ux, Initial residual = 0.0019149364, Final residual = 6.6935152e-05, No Iterations 3
smoothSolver:  Solving for Uy, Initial residual = 0.012833254, Final residual = 0.00044664871, No Iterations 3
smoothSolver:  Solving for Uz, Initial residual = 0.0014040447, Final residual = 4.9824761e-05, No Iterations 3
GAMG:  Solving for p, Initial residual = 0.025478405, Final residual = 0.00014642135, No Iterations 4
time step continuity errors : sum local = 3.2845914e-05, global = 6.4424846e-07, cumulative = -0.00035527238
ExecutionTime = 8.915951 s  ClockTime = 9 s

Time = 64s

smoothSolver:  Solving for Ux, Initial residual = 0.0019082158, Final residual = 6.6741694e-05, No Iterations 3
smoothSolver:  Solving for Uy, Initial residual = 0.012581807, Final residual = 0.00043828945, No Iterations 3
smoothSolver:  Solving for Uz, Initial residual = 0.0013905812, Final residual = 4.9361264e-05, No Iterations 3
GAMG:  Solving for p, Initial residual = 0.025321664, Final residual = 0.00013863328, No Iterations 4
time step continuity errors : sum local = 3.1204452e-05, global = 6.1628513e-07, cumulative = -0.0003546561
ExecutionTime = 9.050856 s  ClockTime = 9 s

Time = 65s

smoothSolver:  Solving for Ux, Initial residual = 0.0019020751, Final residual = 6.6608083e-05, No Iterations 3
smoothSolver:  Solving for Uy, Initial residual = 0.012335932, Final residual = 0.00043005316, No Iterations 3
smoothSolver:  Solving for Uz, Initial residual = 0.0013777866, Final residual = 4.8939156e-05, No Iterations 3
GAMG:  Solving for p, Initial residual = 0.025185039, Final residual = 0.00013195606, No Iterations 4
time step continuity errors : sum local = 2.9817267e-05, global = 5.7658159e-07, cumulative = -0.00035407952
ExecutionTime = 9.183057 s  ClockTime = 9 s

Time = 66s

smoothSolver:  Solving for Ux, Initial residual = 0.0018960009, Final residual = 6.6470839e-05, No Iterations 3
smoothSolver:  Solving for Uy, Initial residual = 0.012094447, Final residual = 0.00042195099, No Iterations 3
smoothSolver:  Solving for Uz, Initial residual = 0.0013655871, Final residual = 4.8545943e-05, No Iterations 3
GAMG:  Solving for p, Initial residual = 0.025022237, Final residual = 0.00024952244, No Iterations 3
time step continuity errors : sum local = 5.6628255e-05, global = 8.4663339e-07, cumulative = -0.00035323288
ExecutionTime = 9.306772 s  ClockTime = 9 s

Time = 67s

smoothSolver:  Solving for Ux, Initial residual = 0.001886872, Final residual = 6.6230896e-05, No Iterations 3
smoothSolver:  Solving for Uy, Initial residual = 0.011857059, Final residual = 0.00041404753, No Iterations 3
smoothSolver:  Solving for Uz, Initial residual = 0.0013537118, Final residual = 4.8177105e-05, No Iterations 3
GAMG:  Solving for p, Initial residual = 0.02471895, Final residual = 0.00013207463, No Iterations 4
time step continuity errors : sum local = 3.0103417e-05, global = 5.2229466e-07, cumulative = -0.00035271059
ExecutionTime = 9.441385 s  ClockTime = 9 s

Time = 68s

smoothSolver:  Solving for Ux, Initial residual = 0.0018816555, Final residual = 6.6158718e-05, No Iterations 3
smoothSolver:  Solving for Uy, Initial residual = 0.011622572, Final residual = 0.00040613636, No Iterations 3
smoothSolver:  Solving for Uz, Initial residual = 0.0013413668, Final residual = 4.7782398e-05, No Iterations 3
GAMG:  Solving for p, Initial residual = 0.024533486, Final residual = 0.00012965473, No Iterations 4
time step continuity errors : sum local = 2.9683076e-05, global = 5.370205e-07, cumulative = -0.00035217357
ExecutionTime = 9.573697 s  ClockTime = 10 s

Time = 69s

smoothSolver:  Solving for Ux, Initial residual = 0.0018748797, Final residual = 6.6060733e-05, No Iterations 3
smoothSolver:  Solving for Uy, Initial residual = 0.011391129, Final residual = 0.00039836752, No Iterations 3
smoothSolver:  Solving for Uz, Initial residual = 0.0013287649, Final residual = 4.7378698e-05, No Iterations 3
GAMG:  Solving for p, Initial residual = 0.024458695, Final residual = 0.00023945295, No Iterations 3
time step continuity errors : sum local = 5.5055137e-05, global = 8.5827924e-07, cumulative = -0.00035131529
ExecutionTime = 9.69911 s  ClockTime = 10 s

Time = 70s

smoothSolver:  Solving for Ux, Initial residual = 0.0018647816, Final residual = 6.5852667e-05, No Iterations 3
smoothSolver:  Solving for Uy, Initial residual = 0.011164248, Final residual = 0.00039085841, No Iterations 3
smoothSolver:  Solving for Uz, Initial residual = 0.0013162497, Final residual = 4.6995736e-05, No Iterations 3
GAMG:  Solving for p, Initial residual = 0.024166698, Final residual = 0.00013742452, No Iterations 4
time step continuity errors : sum local = 3.1722473e-05, global = 5.6232096e-07, cumulative = -0.00035075297
ExecutionTime = 9.833788 s  ClockTime = 10 s

Time = 71s

smoothSolver:  Solving for Ux, Initial residual = 0.0018572199, Final residual = 6.5727656e-05, No Iterations 3
smoothSolver:  Solving for Uy, Initial residual = 0.010942633, Final residual = 0.00038344974, No Iterations 3
smoothSolver:  Solving for Uz, Initial residual = 0.0013025447, Final residual = 4.6564752e-05, No Iterations 3
GAMG:  Solving for p, Initial residual = 0.023922856, Final residual = 0.00013766127, No Iterations 4
time step continuity errors : sum local = 3.1880869e-05, global = 5.6855992e-07, cumulative = -0.00035018441
ExecutionTime = 9.967128 s  ClockTime = 10 s

Time = 72s

smoothSolver:  Solving for Ux, Initial residual = 0.0018491915, Final residual = 6.5532308e-05, No Iterations 3
smoothSolver:  Solving for Uy, Initial residual = 0.010742505, Final residual = 0.00037683528, No Iterations 3
smoothSolver:  Solving for Uz, Initial residual = 0.0012894852, Final residual = 4.6147281e-05, No Iterations 3
GAMG:  Solving for p, Initial residual = 0.023680896, Final residual = 0.00013098584, No Iterations 4
time step continuity errors : sum local = 3.0428902e-05, global = 5.6403271e-07, cumulative = -0.00034962038
ExecutionTime = 10.102091 s  ClockTime = 10 s

Time = 73s

smoothSolver:  Solving for Ux, Initial residual = 0.0018408871, Final residual = 6.5285382e-05, No Iterations 3
smoothSolver:  Solving for Uy, Initial residual = 0.010557722, Final residual = 0.00037076834, No Iterations 3
smoothSolver:  Solving for Uz, Initial residual = 0.001277158, Final residual = 4.5749737e-05, No Iterations 3
GAMG:  Solving for p, Initial residual = 0.023446167, Final residual = 0.00023008243, No Iterations 3
time step continuity errors : sum local = 5.3616319e-05, global = 8.532915e-07, cumulative = -0.00034876709
ExecutionTime = 10.227677 s  ClockTime = 10 s

Time = 74s

smoothSolver:  Solving for Ux, Initial residual = 0.0018307622, Final residual = 6.4948506e-05, No Iterations 3
smoothSolver:  Solving for Uy, Initial residual = 0.010387087, Final residual = 0.00036540655, No Iterations 3
smoothSolver:  Solving for Uz, Initial residual = 0.0012662051, Final residual = 4.5400577e-05, No Iterations 3
GAMG:  Solving for p, Initial residual = 0.023262957, Final residual = 0.00012761995, No Iterations 4
time step continuity errors : sum local = 2.9850111e-05, global = 5.7967777e-07, cumulative = -0.00034818741
ExecutionTime = 10.361389 s  ClockTime = 10 s

Time = 75s

smoothSolver:  Solving for Ux, Initial residual = 0.0018243723, Final residual = 6.4770877e-05, No Iterations 3
smoothSolver:  Solving for Uy, Initial residual = 0.010233163, Final residual = 0.00036038614, No Iterations 3
smoothSolver:  Solving for Uz, Initial residual = 0.0012547373, Final residual = 4.5018338e-05, No Iterations 3
GAMG:  Solving for p, Initial residual = 0.023212684, Final residual = 0.00012335361, No Iterations 4
time step continuity errors : sum local = 2.8954579e-05, global = 5.4063915e-07, cumulative = -0.00034764677
ExecutionTime = 10.495945 s  ClockTime = 10 s

Time = 76s

smoothSolver:  Solving for Ux, Initial residual = 0.0018180162, Final residual = 6.4613037e-05, No Iterations 3
smoothSolver:  Solving for Uy, Initial residual = 0.010099868, Final residual = 0.00035581622, No Iterations 3
smoothSolver:  Solving for Uz, Initial residual = 0.0012437203, Final residual = 4.4654113e-05, No Iterations 3
GAMG:  Solving for p, Initial residual = 0.023200182, Final residual = 0.00022772222, No Iterations 3
time step continuity errors : sum local = 5.3657393e-05, global = 8.4171678e-07, cumulative = -0.00034680505
ExecutionTime = 10.620666 s  ClockTime = 11 s

Time = 77s

smoothSolver:  Solving for Ux, Initial residual = 0.0018091094, Final residual = 6.4395681e-05, No Iterations 3
smoothSolver:  Solving for Uy, Initial residual = 0.0099729238, Final residual = 0.00035142401, No Iterations 3
smoothSolver:  Solving for Uz, Initial residual = 0.0012334754, Final residual = 4.433088e-05, No Iterations 3
GAMG:  Solving for p, Initial residual = 0.023033432, Final residual = 0.00012475317, No Iterations 4
time step continuity errors : sum local = 2.9512871e-05, global = 5.0264735e-07, cumulative = -0.0003463024
ExecutionTime = 10.752641 s  ClockTime = 11 s

Time = 78s

smoothSolver:  Solving for Ux, Initial residual = 0.0018031208, Final residual = 6.4310732e-05, No Iterations 3
smoothSolver:  Solving for Uy, Initial residual = 0.0098504654, Final residual = 0.00034717449, No Iterations 3
smoothSolver:  Solving for Uz, Initial residual = 0.0012229453, Final residual = 4.3995659e-05, No Iterations 3
GAMG:  Solving for p, Initial residual = 0.022892886, Final residual = 0.00012134592, No Iterations 4
time step continuity errors : sum local = 2.8819045e-05, global = 4.7949384e-07, cumulative = -0.00034582291
ExecutionTime = 10.885929 s  ClockTime = 11 s

Time = 79s

smoothSolver:  Solving for Ux, Initial residual = 0.0017958396, Final residual = 6.4169944e-05, No Iterations 3
smoothSolver:  Solving for Uy, Initial residual = 0.0097159272, Final residual = 0.00034263657, No Iterations 3
smoothSolver:  Solving for Uz, Initial residual = 0.0012121529, Final residual = 4.3656024e-05, No Iterations 3
GAMG:  Solving for p, Initial residual = 0.02273765, Final residual = 0.0002227921, No Iterations 3
time step continuity errors : sum local = 5.3110886e-05, global = 7.2696289e-07, cumulative = -0.00034509595
ExecutionTime = 11.016318 s  ClockTime = 11 s

Time = 80s

smoothSolver:  Solving for Ux, Initial residual = 0.0017853951, Final residual = 6.3930149e-05, No Iterations 3
smoothSolver:  Solving for Uy, Initial residual = 0.0095758167, Final residual = 0.00033786396, No Iterations 3
smoothSolver:  Solving for Uz, Initial residual = 0.0012013928, Final residual = 4.3328477e-05, No Iterations 3
GAMG:  Solving for p, Initial residual = 0.022600045, Final residual = 0.00012352414, No Iterations 4
time step continuity errors : sum local = 2.9553402e-05, global = 4.7060105e-07, cumulative = -0.00034462535
ExecutionTime = 11.149199 s  ClockTime = 11 s

Time = 81s

smoothSolver:  Solving for Ux, Initial residual = 0.0017774338, Final residual = 6.381613e-05, No Iterations 3
smoothSolver:  Solving for Uy, Initial residual = 0.009448624, Final residual = 0.00033346709, No Iterations 3
smoothSolver:  Solving for Uz, Initial residual = 0.0011900388, Final residual = 4.2972223e-05, No Iterations 3
GAMG:  Solving for p, Initial residual = 0.022454804, Final residual = 0.00012090668, No Iterations 4
time step continuity errors : sum local = 2.9022873e-05, global = 4.7753327e-07, cumulative = -0.00034414781
ExecutionTime = 11.283919 s  ClockTime = 11 s

Time = 82s

smoothSolver:  Solving for Ux, Initial residual = 0.0017691426, Final residual = 6.3661493e-05, No Iterations 3
smoothSolver:  Solving for Uy, Initial residual = 0.0093329863, Final residual = 0.00032947698, No Iterations 3
smoothSolver:  Solving for Uz, Initial residual = 0.0011788523, Final residual = 4.2613658e-05, No Iterations 3
GAMG:  Solving for p, Initial residual = 0.022379744, Final residual = 0.0001163766, No Iterations 4
time step continuity errors : sum local = 2.8027707e-05, global = 4.8732586e-07, cumulative = -0.00034366049
ExecutionTime = 11.416979 s  ClockTime = 11 s

Time = 83s

smoothSolver:  Solving for Ux, Initial residual = 0.0017601283, Final residual = 6.3454613e-05, No Iterations 3
smoothSolver:  Solving for Uy, Initial residual = 0.0092197408, Final residual = 0.00032556787, No Iterations 3
smoothSolver:  Solving for Uz, Initial residual = 0.0011678181, Final residual = 4.225321e-05, No Iterations 3
GAMG:  Solving for p, Initial residual = 0.022263808, Final residual = 0.00021808018, No Iterations 3
time step continuity errors : sum local = 5.2684302e-05, global = 7.4181374e-07, cumulative = -0.00034291867
ExecutionTime = 11.544841 s  ClockTime = 12 s

Time = 84s

smoothSolver:  Solving for Ux, Initial residual = 0.0017490057, Final residual = 6.3169915e-05, No Iterations 3
smoothSolver:  Solving for Uy, Initial residual = 0.0091012359, Final residual = 0.00032138757, No Iterations 3
smoothSolver:  Solving for Uz, Initial residual = 0.0011573133, Final residual = 4.1908939e-05, No Iterations 3
GAMG:  Solving for p, Initial residual = 0.022070043, Final residual = 0.0001187767, No Iterations 4
time step continuity errors : sum local = 2.8789689e-05, global = 5.3594556e-07, cumulative = -0.00034238273
ExecutionTime = 11.67771 s  ClockTime = 12 s

Time = 85s

smoothSolver:  Solving for Ux, Initial residual = 0.0017403882, Final residual = 6.295409e-05, No Iterations 3
smoothSolver:  Solving for Uy, Initial residual = 0.0089895145, Final residual = 0.00031732728, No Iterations 3
smoothSolver:  Solving for Uz, Initial residual = 0.0011461512, Final residual = 4.1530332e-05, No Iterations 3
GAMG:  Solving for p, Initial residual = 0.022005686, Final residual = 0.00011565968, No Iterations 4
time step continuity errors : sum local = 2.8121676e-05, global = 5.1480225e-07, cumulative = -0.00034186793
ExecutionTime = 11.812057 s  ClockTime = 12 s

Time = 86s

smoothSolver:  Solving for Ux, Initial residual = 0.0017318085, Final residual = 6.2705167e-05, No Iterations 3
smoothSolver:  Solving for Uy, Initial residual = 0.0088858442, Final residual = 0.00031361196, No Iterations 3
smoothSolver:  Solving for Uz, Initial residual = 0.0011355713, Final residual = 4.1171165e-05, No Iterations 3
GAMG:  Solving for p, Initial residual = 0.021919592, Final residual = 0.00021752435, No Iterations 3
time step continuity errors : sum local = 5.3061131e-05, global = 7.5419328e-07, cumulative = -0.00034111373
ExecutionTime = 11.938973 s  ClockTime = 12 s

Time = 87s

smoothSolver:  Solving for Ux, Initial residual = 0.0017218732, Final residual = 6.2423851e-05, No Iterations 3
smoothSolver:  Solving for Uy, Initial residual = 0.0087981722, Final residual = 0.00031035964, No Iterations 3
smoothSolver:  Solving for Uz, Initial residual = 0.0011260702, Final residual = 4.0855117e-05, No Iterations 3
GAMG:  Solving for p, Initial residual = 0.021671473, Final residual = 0.00011890821, No Iterations 4
time step continuity errors : sum local = 2.9106537e-05, global = 4.436165e-07, cumulative = -0.00034067012
ExecutionTime = 12.070651 s  ClockTime = 12 s

Time = 88s

smoothSolver:  Solving for Ux, Initial residual = 0.0017152318, Final residual = 6.2289892e-05, No Iterations 3
smoothSolver:  Solving for Uy, Initial residual = 0.0087381304, Final residual = 0.00030807688, No Iterations 3
smoothSolver:  Solving for Uz, Initial residual = 0.0011169101, Final residual = 4.0551115e-05, No Iterations 3
GAMG:  Solving for p, Initial residual = 0.021540285, Final residual = 0.00011493035, No Iterations 4
time step continuity errors : sum local = 2.8230598e-05, global = 4.1672743e-07, cumulative = -0.00034025339
ExecutionTime = 12.203532 s  ClockTime = 12 s

Time = 89s

smoothSolver:  Solving for Ux, Initial residual = 0.001708061, Final residual = 6.2140973e-05, No Iterations 3
smoothSolver:  Solving for Uy, Initial residual = 0.0086749988, Final residual = 0.00030582257, No Iterations 3
smoothSolver:  Solving for Uz, Initial residual = 0.0011077885, Final residual = 4.0251731e-05, No Iterations 3
GAMG:  Solving for p, Initial residual = 0.021389359, Final residual = 0.00021268602, No Iterations 3
time step continuity errors : sum local = 5.2412562e-05, global = 6.0062534e-07, cumulative = -0.00033965276
ExecutionTime = 12.328391 s  ClockTime = 12 s

Time = 90s

smoothSolver:  Solving for Ux, Initial residual = 0.0016981679, Final residual = 6.1882133e-05, No Iterations 3
smoothSolver:  Solving for Uy, Initial residual = 0.0085959125, Final residual = 0.00030273337, No Iterations 3
smoothSolver:  Solving for Uz, Initial residual = 0.0010983817, Final residual = 3.9946856e-05, No Iterations 3
GAMG:  Solving for p, Initial residual = 0.021282748, Final residual = 0.00011522823, No Iterations 4
time step continuity errors : sum local = 2.8485746e-05, global = 4.026102e-07, cumulative = -0.00033925015
ExecutionTime = 12.46359 s  ClockTime = 12 s

Time = 91s

smoothSolver:  Solving for Ux, Initial residual = 0.0016897836, Final residual = 6.1694039e-05, No Iterations 3
smoothSolver:  Solving for Uy, Initial residual = 0.0085225121, Final residual = 0.00029992848, No Iterations 3
smoothSolver:  Solving for Uz, Initial residual = 0.0010883141, Final residual = 3.9612177e-05, No Iterations 3
GAMG:  Solving for p, Initial residual = 0.021179668, Final residual = 0.00011210729, No Iterations 4
time step continuity errors : sum local = 2.7798685e-05, global = 4.2159788e-07, cumulative = -0.00033882855
ExecutionTime = 12.596721 s  ClockTime = 13 s

Time = 92s

smoothSolver:  Solving for Ux, Initial residual = 0.0016808252, Final residual = 6.1452009e-05, No Iterations 3
smoothSolver:  Solving for Uy, Initial residual = 0.0084448642, Final residual = 0.00029706088, No Iterations 3
smoothSolver:  Solving for Uz, Initial residual = 0.001078313, Final residual = 3.9277873e-05, No Iterations 3
GAMG:  Solving for p, Initial residual = 0.021179402, Final residual = 0.00021132687, No Iterations 3
time step continuity errors : sum local = 5.25558e-05, global = 6.4392658e-07, cumulative = -0.00033818463
ExecutionTime = 12.720613 s  ClockTime = 13 s

Time = 93s

smoothSolver:  Solving for Ux, Initial residual = 0.0016705557, Final residual = 6.1133506e-05, No Iterations 3
smoothSolver:  Solving for Uy, Initial residual = 0.008363908, Final residual = 0.00029417074, No Iterations 3
smoothSolver:  Solving for Uz, Initial residual = 0.0010690876, Final residual = 3.8972105e-05, No Iterations 3
GAMG:  Solving for p, Initial residual = 0.02109823, Final residual = 0.00011249996, No Iterations 4
time step continuity errors : sum local = 2.8064107e-05, global = 4.8152961e-07, cumulative = -0.0003377031
ExecutionTime = 12.852849 s  ClockTime = 13 s

Time = 94s

smoothSolver:  Solving for Ux, Initial residual = 0.0016631579, Final residual = 6.0898079e-05, No Iterations 3
smoothSolver:  Solving for Uy, Initial residual = 0.0083125285, Final residual = 0.00029228402, No Iterations 3
smoothSolver:  Solving for Uz, Initial residual = 0.0010602028, Final residual = 3.8674261e-05, No Iterations 3
GAMG:  Solving for p, Initial residual = 0.02111949, Final residual = 0.00010863635, No Iterations 4
time step continuity errors : sum local = 2.7178569e-05, global = 4.805884e-07, cumulative = -0.00033722251
ExecutionTime = 12.987585 s  ClockTime = 13 s

Time = 95s

smoothSolver:  Solving for Ux, Initial residual = 0.0016560595, Final residual = 6.0679341e-05, No Iterations 3
smoothSolver:  Solving for Uy, Initial residual = 0.0082712001, Final residual = 0.00029091884, No Iterations 3
smoothSolver:  Solving for Uz, Initial residual = 0.00105171, Final residual = 3.8393424e-05, No Iterations 3
GAMG:  Solving for p, Initial residual = 0.021054691, Final residual = 0.00020446021, No Iterations 3
time step continuity errors : sum local = 5.1288541e-05, global = 7.3305125e-07, cumulative = -0.00033648946
ExecutionTime = 13.11453 s  ClockTime = 13 s

Time = 96s

smoothSolver:  Solving for Ux, Initial residual = 0.0016473805, Final residual = 6.0389453e-05, No Iterations 3
smoothSolver:  Solving for Uy, Initial residual = 0.008213053, Final residual = 0.00028879975, No Iterations 3
smoothSolver:  Solving for Uz, Initial residual = 0.0010432829, Final residual = 3.8118781e-05, No Iterations 3
GAMG:  Solving for p, Initial residual = 0.02092534, Final residual = 0.00010859802, No Iterations 4
time step continuity errors : sum local = 2.7315387e-05, global = 4.7614176e-07, cumulative = -0.00033601332
ExecutionTime = 13.247289 s  ClockTime = 13 s

Time = 97s

smoothSolver:  Solving for Ux, Initial residual = 0.0016400993, Final residual = 6.0162649e-05, No Iterations 3
smoothSolver:  Solving for Uy, Initial residual = 0.0081557455, Final residual = 0.00028661642, No Iterations 3
smoothSolver:  Solving for Uz, Initial residual = 0.0010343375, Final residual = 3.7814513e-05, No Iterations 3
GAMG:  Solving for p, Initial residual = 0.020879252, Final residual = 0.00020695477, No Iterations 3
time step continuity errors : sum local = 5.2189404e-05, global = 7.1546151e-07, cumulative = -0.00033529786
ExecutionTime = 13.372423 s  ClockTime = 13 s

Time = 98s

smoothSolver:  Solving for Ux, Initial residual = 0.0016303439, Final residual = 5.9838375e-05, No Iterations 3
smoothSolver:  Solving for Uy, Initial residual = 0.0080757406, Final residual = 0.0002835299, No Iterations 3
smoothSolver:  Solving for Uz, Initial residual = 0.0010250665, Final residual = 3.7506636e-05, No Iterations 3
GAMG:  Solving for p, Initial residual = 0.020681478, Final residual = 0.00011181867, No Iterations 4
time step continuity errors : sum local = 2.8271014e-05, global = 4.6464476e-07, cumulative = -0.00033483321
ExecutionTime = 13.506359 s  ClockTime = 13 s

Time = 99s

smoothSolver:  Solving for Ux, Initial residual = 0.0016213769, Final residual = 5.9545244e-05, No Iterations 3
smoothSolver:  Solving for Uy, Initial residual = 0.0080008012, Final residual = 0.00028071115, No Iterations 3
smoothSolver:  Solving for Uz, Initial residual = 0.0010151702, Final residual = 3.7167885e-05, No Iterations 3
GAMG:  Solving for p, Initial residual = 0.020585701, Final residual = 0.00010864849, No Iterations 4
time step continuity errors : sum local = 2.753392e-05, global = 4.4855555e-07, cumulative = -0.00033438466
ExecutionTime = 13.639234 s  ClockTime = 14 s

Time = 100s

smoothSolver:  Solving for Ux, Initial residual = 0.0016113673, Final residual = 5.9204349e-05, No Iterations 3
smoothSolver:  Solving for Uy, Initial residual = 0.007929136, Final residual = 0.00027803434, No Iterations 3
smoothSolver:  Solving for Uz, Initial residual = 0.0010056313, Final residual = 3.6838609e-05, No Iterations 3
GAMG:  Solving for p, Initial residual = 0.020417589, Final residual = 0.00020044312, No Iterations 3
time step continuity errors : sum local = 5.0914116e-05, global = 6.5238099e-07, cumulative = -0.00033373227
ExecutionTime = 13.76618 s  ClockTime = 14 s

Time = 101s

smoothSolver:  Solving for Ux, Initial residual = 0.0016007703, Final residual = 5.884373e-05, No Iterations 3
smoothSolver:  Solving for Uy, Initial residual = 0.0078543295, Final residual = 0.00027533132, No Iterations 3
smoothSolver:  Solving for Uz, Initial residual = 0.00099684916, Final residual = 3.654214e-05, No Iterations 3
GAMG:  Solving for p, Initial residual = 0.020193603, Final residual = 0.00011063254, No Iterations 4
time step continuity errors : sum local = 2.817819e-05, global = 4.9317221e-07, cumulative = -0.0003332391
ExecutionTime = 13.899368 s  ClockTime = 14 s

Time = 102s

smoothSolver:  Solving for Ux, Initial residual = 0.0015916833, Final residual = 5.852947e-05, No Iterations 3
smoothSolver:  Solving for Uy, Initial residual = 0.0078091375, Final residual = 0.00027352525, No Iterations 3
smoothSolver:  Solving for Uz, Initial residual = 0.00098814613, Final residual = 3.6239259e-05, No Iterations 3
GAMG:  Solving for p, Initial residual = 0.020049487, Final residual = 0.00010648848, No Iterations 4
time step continuity errors : sum local = 2.7187325e-05, global = 5.0150864e-07, cumulative = -0.00033273759
ExecutionTime = 14.031614 s  ClockTime = 14 s

Time = 103s

smoothSolver:  Solving for Ux, Initial residual = 0.0015832324, Final residual = 5.8231022e-05, No Iterations 3
smoothSolver:  Solving for Uy, Initial residual = 0.0077763676, Final residual = 0.00027229914, No Iterations 3
smoothSolver:  Solving for Uz, Initial residual = 0.00098019231, Final residual = 3.5959047e-05, No Iterations 3
GAMG:  Solving for p, Initial residual = 0.019907532, Final residual = 0.00019609331, No Iterations 3
time step continuity errors : sum local = 5.0192174e-05, global = 7.2751512e-07, cumulative = -0.00033201008
ExecutionTime = 14.158234 s  ClockTime = 14 s

Time = 104s

smoothSolver:  Solving for Ux, Initial residual = 0.0015746792, Final residual = 5.7907923e-05, No Iterations 3
smoothSolver:  Solving for Uy, Initial residual = 0.0077352131, Final residual = 0.00027087849, No Iterations 3
smoothSolver:  Solving for Uz, Initial residual = 0.00097266843, Final residual = 3.570013e-05, No Iterations 3
GAMG:  Solving for p, Initial residual = 0.01979378, Final residual = 0.00010430826, No Iterations 4
time step continuity errors : sum local = 2.6774457e-05, global = 5.2430961e-07, cumulative = -0.00033148577
ExecutionTime = 14.290282 s  ClockTime = 14 s

Time = 105s

smoothSolver:  Solving for Ux, Initial residual = 0.0015679641, Final residual = 5.7639148e-05, No Iterations 3
smoothSolver:  Solving for Uy, Initial residual = 0.0077120387, Final residual = 0.00027003702, No Iterations 3
smoothSolver:  Solving for Uz, Initial residual = 0.0009650176, Final residual = 3.5424357e-05, No Iterations 3
GAMG:  Solving for p, Initial residual = 0.019738244, Final residual = 0.00019500151, No Iterations 3
time step continuity errors : sum local = 5.0179712e-05, global = 7.6783071e-07, cumulative = -0.00033071794
ExecutionTime = 14.415729 s  ClockTime = 14 s

Time = 106s

smoothSolver:  Solving for Ux, Initial residual = 0.0015599234, Final residual = 5.7318695e-05, No Iterations 3
smoothSolver:  Solving for Uy, Initial residual = 0.007669872, Final residual = 0.0002685199, No Iterations 3
smoothSolver:  Solving for Uz, Initial residual = 0.00095746129, Final residual = 3.5156892e-05, No Iterations 3
GAMG:  Solving for p, Initial residual = 0.019590214, Final residual = 0.00010279888, No Iterations 4
time step continuity errors : sum local = 2.6525497e-05, global = 5.1329077e-07, cumulative = -0.00033020465
ExecutionTime = 14.548886 s  ClockTime = 15 s

Time = 107s

smoothSolver:  Solving for Ux, Initial residual = 0.0015530722, Final residual = 5.7020585e-05, No Iterations 3
smoothSolver:  Solving for Uy, Initial residual = 0.0076410987, Final residual = 0.0002675653, No Iterations 3
smoothSolver:  Solving for Uz, Initial residual = 0.00094980672, Final residual = 3.4872279e-05, No Iterations 3
GAMG:  Solving for p, Initial residual = 0.019527048, Final residual = 0.00019374338, No Iterations 3
time step continuity errors : sum local = 5.0120976e-05, global = 7.5481616e-07, cumulative = -0.00032944983
ExecutionTime = 14.673386 s  ClockTime = 15 s

Time = 108s

smoothSolver:  Solving for Ux, Initial residual = 0.0015442998, Final residual = 5.6662513e-05, No Iterations 3
smoothSolver:  Solving for Uy, Initial residual = 0.0075973843, Final residual = 0.0002659995, No Iterations 3
smoothSolver:  Solving for Uz, Initial residual = 0.00094239912, Final residual = 3.4596843e-05, No Iterations 3
GAMG:  Solving for p, Initial residual = 0.019406845, Final residual = 0.00010719313, No Iterations 4
time step continuity errors : sum local = 2.7804796e-05, global = 5.117023e-07, cumulative = -0.00032893813
ExecutionTime = 14.806334 s  ClockTime = 15 s

Time = 109s

smoothSolver:  Solving for Ux, Initial residual = 0.0015364707, Final residual = 5.6290961e-05, No Iterations 3
smoothSolver:  Solving for Uy, Initial residual = 0.0075627425, Final residual = 0.0002647639, No Iterations 3
smoothSolver:  Solving for Uz, Initial residual = 0.00093476546, Final residual = 3.4304089e-05, No Iterations 3
GAMG:  Solving for p, Initial residual = 0.019383368, Final residual = 0.00010500562, No Iterations 4
time step continuity errors : sum local = 2.7298772e-05, global = 4.8066365e-07, cumulative = -0.00032845747
ExecutionTime = 14.939746 s  ClockTime = 15 s

Time = 110s

smoothSolver:  Solving for Ux, Initial residual = 0.0015277987, Final residual = 5.5890009e-05, No Iterations 3
smoothSolver:  Solving for Uy, Initial residual = 0.0075184575, Final residual = 0.00026335129, No Iterations 3
smoothSolver:  Solving for Uz, Initial residual = 0.00092710867, Final residual = 3.4014603e-05, No Iterations 3
GAMG:  Solving for p, Initial residual = 0.019266402, Final residual = 0.00018874818, No Iterations 3
time step continuity errors : sum local = 4.9169673e-05, global = 6.9869742e-07, cumulative = -0.00032775877
ExecutionTime = 15.06489 s  ClockTime = 15 s

Time = 111s

smoothSolver:  Solving for Ux, Initial residual = 0.0015186283, Final residual = 5.5486783e-05, No Iterations 3
smoothSolver:  Solving for Uy, Initial residual = 0.0074597143, Final residual = 0.00026148702, No Iterations 3
smoothSolver:  Solving for Uz, Initial residual = 0.00091990576, Final residual = 3.3746375e-05, No Iterations 3
GAMG:  Solving for p, Initial residual = 0.019147201, Final residual = 0.00010830364, No Iterations 4
time step continuity errors : sum local = 2.828013e-05, global = 4.5561933e-07, cumulative = -0.00032730315
ExecutionTime = 15.199336 s  ClockTime = 15 s

Time = 112s

smoothSolver:  Solving for Ux, Initial residual = 0.001509793, Final residual = 5.5115205e-05, No Iterations 3
smoothSolver:  Solving for Uy, Initial residual = 0.0074180303, Final residual = 0.00026026226, No Iterations 3
smoothSolver:  Solving for Uz, Initial residual = 0.00091244414, Final residual = 3.3462648e-05, No Iterations 3
GAMG:  Solving for p, Initial residual = 0.019082171, Final residual = 0.0001044304, No Iterations 4
time step continuity errors : sum local = 2.7318566e-05, global = 4.5273299e-07, cumulative = -0.00032685042
ExecutionTime = 15.333895 s  ClockTime = 15 s

Time = 113s

smoothSolver:  Solving for Ux, Initial residual = 0.0015014549, Final residual = 5.4774589e-05, No Iterations 3
smoothSolver:  Solving for Uy, Initial residual = 0.0073755178, Final residual = 0.00025900898, No Iterations 3
smoothSolver:  Solving for Uz, Initial residual = 0.00090516945, Final residual = 3.3186069e-05, No Iterations 3
GAMG:  Solving for p, Initial residual = 0.019010206, Final residual = 0.00018333965, No Iterations 3
time step continuity errors : sum local = 4.8055307e-05, global = 7.1808763e-07, cumulative = -0.00032613233
ExecutionTime = 15.460947 s  ClockTime = 15 s

Time = 114s

smoothSolver:  Solving for Ux, Initial residual = 0.0014934045, Final residual = 5.4449746e-05, No Iterations 3
smoothSolver:  Solving for Uy, Initial residual = 0.0073239958, Final residual = 0.00025746542, No Iterations 3
smoothSolver:  Solving for Uz, Initial residual = 0.00089818943, Final residual = 3.2928092e-05, No Iterations 3
GAMG:  Solving for p, Initial residual = 0.018841686, Final residual = 0.00010409857, No Iterations 4
time step continuity errors : sum local = 2.7352411e-05, global = 5.1127211e-07, cumulative = -0.00032562106
ExecutionTime = 15.594265 s  ClockTime = 16 s

Time = 115s

smoothSolver:  Solving for Ux, Initial residual = 0.0014862447, Final residual = 5.4177601e-05, No Iterations 3
smoothSolver:  Solving for Uy, Initial residual = 0.0072943026, Final residual = 0.00025676195, No Iterations 3
smoothSolver:  Solving for Uz, Initial residual = 0.00089126374, Final residual = 3.266483e-05, No Iterations 3
GAMG:  Solving for p, Initial residual = 0.018699392, Final residual = 0.00010018927, No Iterations 4
time step continuity errors : sum local = 2.6377987e-05, global = 5.1742664e-07, cumulative = -0.00032510363
ExecutionTime = 15.728668 s  ClockTime = 16 s

Time = 116s

smoothSolver:  Solving for Ux, Initial residual = 0.0014790813, Final residual = 5.3905176e-05, No Iterations 3
smoothSolver:  Solving for Uy, Initial residual = 0.0072623948, Final residual = 0.00025601067, No Iterations 3
smoothSolver:  Solving for Uz, Initial residual = 0.00088461246, Final residual = 3.2408189e-05, No Iterations 3
GAMG:  Solving for p, Initial residual = 0.018557933, Final residual = 0.00018352519, No Iterations 3
time step continuity errors : sum local = 4.8421385e-05, global = 7.4515225e-07, cumulative = -0.00032435848
ExecutionTime = 15.85368 s  ClockTime = 16 s

Time = 117s

smoothSolver:  Solving for Ux, Initial residual = 0.001471348, Final residual = 5.3622791e-05, No Iterations 3
smoothSolver:  Solving for Uy, Initial residual = 0.0072179958, Final residual = 0.00025487824, No Iterations 3
smoothSolver:  Solving for Uz, Initial residual = 0.00087825082, Final residual = 3.21696e-05, No Iterations 3
GAMG:  Solving for p, Initial residual = 0.018364308, Final residual = 0.00010197783, No Iterations 4
time step continuity errors : sum local = 2.6973136e-05, global = 5.3644522e-07, cumulative = -0.00032382203
ExecutionTime = 15.986943 s  ClockTime = 16 s

Time = 118s

smoothSolver:  Solving for Ux, Initial residual = 0.0014647997, Final residual = 5.3382836e-05, No Iterations 3
smoothSolver:  Solving for Uy, Initial residual = 0.0071924398, Final residual = 0.00025438689, No Iterations 3
smoothSolver:  Solving for Uz, Initial residual = 0.00087199551, Final residual = 3.1929021e-05, No Iterations 3
GAMG:  Solving for p, Initial residual = 0.018249351, Final residual = 9.9616006e-05, No Iterations 4
time step continuity errors : sum local = 2.6407071e-05, global = 5.2422555e-07, cumulative = -0.00032329781
ExecutionTime = 16.118421 s  ClockTime = 16 s

Time = 119s

smoothSolver:  Solving for Ux, Initial residual = 0.0014582318, Final residual = 5.3139994e-05, No Iterations 3
smoothSolver:  Solving for Uy, Initial residual = 0.0071614097, Final residual = 0.00025376761, No Iterations 3
smoothSolver:  Solving for Uz, Initial residual = 0.00086587476, Final residual = 3.1694606e-05, No Iterations 3
GAMG:  Solving for p, Initial residual = 0.018178035, Final residual = 9.6086657e-05, No Iterations 4
time step continuity errors : sum local = 2.552744e-05, global = 4.9734351e-07, cumulative = -0.00032280046
ExecutionTime = 16.250384 s  ClockTime = 16 s

Time = 120s

smoothSolver:  Solving for Ux, Initial residual = 0.0014512747, Final residual = 5.288218e-05, No Iterations 3
smoothSolver:  Solving for Uy, Initial residual = 0.0071210993, Final residual = 0.00025281573, No Iterations 3
smoothSolver:  Solving for Uz, Initial residual = 0.00085959042, Final residual = 3.1456169e-05, No Iterations 3
GAMG:  Solving for p, Initial residual = 0.017978215, Final residual = 0.00017804065, No Iterations 3
time step continuity errors : sum local = 4.7391534e-05, global = 6.8803511e-07, cumulative = -0.00032211243
ExecutionTime = 16.377131 s  ClockTime = 16 s

Time = 121s

smoothSolver:  Solving for Ux, Initial residual = 0.0014436315, Final residual = 5.2599298e-05, No Iterations 3
smoothSolver:  Solving for Uy, Initial residual = 0.0070580699, Final residual = 0.00025081149, No Iterations 3
smoothSolver:  Solving for Uz, Initial residual = 0.00085302412, Final residual = 3.1212055e-05, No Iterations 3
GAMG:  Solving for p, Initial residual = 0.017775725, Final residual = 0.00010501979, No Iterations 4
time step continuity errors : sum local = 2.8015314e-05, global = 4.7453341e-07, cumulative = -0.00032163789
ExecutionTime = 16.51006 s  ClockTime = 17 s

Time = 122s

smoothSolver:  Solving for Ux, Initial residual = 0.0014363481, Final residual = 5.2317567e-05, No Iterations 3
smoothSolver:  Solving for Uy, Initial residual = 0.0070052427, Final residual = 0.00024925407, No Iterations 3
smoothSolver:  Solving for Uz, Initial residual = 0.00084623081, Final residual = 3.0955667e-05, No Iterations 3
GAMG:  Solving for p, Initial residual = 0.017636145, Final residual = 0.00010227879, No Iterations 4
time step continuity errors : sum local = 2.7328565e-05, global = 4.8238399e-07, cumulative = -0.00032115551
ExecutionTime = 16.642507 s  ClockTime = 17 s

Time = 123s

smoothSolver:  Solving for Ux, Initial residual = 0.0014292431, Final residual = 5.2040804e-05, No Iterations 3
smoothSolver:  Solving for Uy, Initial residual = 0.0069597532, Final residual = 0.00024797441, No Iterations 3
smoothSolver:  Solving for Uz, Initial residual = 0.00083969671, Final residual = 3.070882e-05, No Iterations 3
GAMG:  Solving for p, Initial residual = 0.017515062, Final residual = 9.4730372e-05, No Iterations 4
time step continuity errors : sum local = 2.5353216e-05, global = 4.9897976e-07, cumulative = -0.00032065653
ExecutionTime = 16.775657 s  ClockTime = 17 s

Time = 124s

smoothSolver:  Solving for Ux, Initial residual = 0.0014224187, Final residual = 5.1774942e-05, No Iterations 3
smoothSolver:  Solving for Uy, Initial residual = 0.0069239985, Final residual = 0.00024708089, No Iterations 3
smoothSolver:  Solving for Uz, Initial residual = 0.00083364518, Final residual = 3.048085e-05, No Iterations 3
GAMG:  Solving for p, Initial residual = 0.017433244, Final residual = 8.7895298e-05, No Iterations 4
time step continuity errors : sum local = 2.3565704e-05, global = 5.0005078e-07, cumulative = -0.00032015648
ExecutionTime = 16.909586 s  ClockTime = 17 s

Time = 125s

smoothSolver:  Solving for Ux, Initial residual = 0.0014160694, Final residual = 5.1514063e-05, No Iterations 3
smoothSolver:  Solving for Uy, Initial residual = 0.0068984147, Final residual = 0.00024647182, No Iterations 3
smoothSolver:  Solving for Uz, Initial residual = 0.00082798583, Final residual = 3.0272503e-05, No Iterations 3
GAMG:  Solving for p, Initial residual = 0.017370874, Final residual = 8.6274852e-05, No Iterations 4
time step continuity errors : sum local = 2.3176383e-05, global = 5.0788407e-07, cumulative = -0.0003196486
ExecutionTime = 17.040988 s  ClockTime = 17 s

Time = 126s

smoothSolver:  Solving for Ux, Initial residual = 0.0014100605, Final residual = 5.126204e-05, No Iterations 3
smoothSolver:  Solving for Uy, Initial residual = 0.0068814294, Final residual = 0.00024611148, No Iterations 3
smoothSolver:  Solving for Uz, Initial residual = 0.00082279799, Final residual = 3.0083116e-05, No Iterations 3
GAMG:  Solving for p, Initial residual = 0.017344643, Final residual = 8.6792278e-05, No Iterations 4
time step continuity errors : sum local = 2.3363382e-05, global = 5.0856576e-07, cumulative = -0.00031914003
ExecutionTime = 17.175412 s  ClockTime = 17 s

Time = 127s

smoothSolver:  Solving for Ux, Initial residual = 0.0014046096, Final residual = 5.1023872e-05, No Iterations 3
smoothSolver:  Solving for Uy, Initial residual = 0.0068688475, Final residual = 0.00024592553, No Iterations 3
smoothSolver:  Solving for Uz, Initial residual = 0.00081790289, Final residual = 2.9905675e-05, No Iterations 3
GAMG:  Solving for p, Initial residual = 0.017303648, Final residual = 8.8377804e-05, No Iterations 4
time step continuity errors : sum local = 2.3839889e-05, global = 5.1243378e-07, cumulative = -0.0003186276
ExecutionTime = 17.307703 s  ClockTime = 17 s

Time = 128s

smoothSolver:  Solving for Ux, Initial residual = 0.0013991876, Final residual = 5.077411e-05, No Iterations 3
smoothSolver:  Solving for Uy, Initial residual = 0.0068477754, Final residual = 0.00024533539, No Iterations 3
smoothSolver:  Solving for Uz, Initial residual = 0.0008129113, Final residual = 2.9724865e-05, No Iterations 3
GAMG:  Solving for p, Initial residual = 0.017233061, Final residual = 9.0126321e-05, No Iterations 4
time step continuity errors : sum local = 2.4359588e-05, global = 5.0490766e-07, cumulative = -0.00031812269
ExecutionTime = 17.441868 s  ClockTime = 17 s

Time = 129s

smoothSolver:  Solving for Ux, Initial residual = 0.0013936799, Final residual = 5.0503757e-05, No Iterations 3
smoothSolver:  Solving for Uy, Initial residual = 0.0068157486, Final residual = 0.00024422376, No Iterations 3
smoothSolver:  Solving for Uz, Initial residual = 0.00080764978, Final residual = 2.9526664e-05, No Iterations 3
GAMG:  Solving for p, Initial residual = 0.017170043, Final residual = 9.1921885e-05, No Iterations 4
time step continuity errors : sum local = 2.4890657e-05, global = 5.1192937e-07, cumulative = -0.00031761076
ExecutionTime = 17.575223 s  ClockTime = 18 s

Time = 130s

smoothSolver:  Solving for Ux, Initial residual = 0.0013879699, Final residual = 5.0227337e-05, No Iterations 3
smoothSolver:  Solving for Uy, Initial residual = 0.0067718376, Final residual = 0.00024268112, No Iterations 3
[...]
GAMG:  Solving for p, Initial residual = 1.1192248e-05, Final residual = 9.6317043e-08, No Iterations 3
time step continuity errors : sum local = 3.217195e-08, global = 6.1188035e-10, cumulative = -0.00029641436
ExecutionTime = 236.74156 s  ClockTime = 239 s

Time = 1856s

smoothSolver:  Solving for Ux, Initial residual = 5.8688195e-07, Final residual = 2.2113095e-08, No Iterations 3
smoothSolver:  Solving for Uy, Initial residual = 3.1646956e-06, Final residual = 1.2098677e-07, No Iterations 3
smoothSolver:  Solving for Uz, Initial residual = 1.8395123e-07, Final residual = 6.6499851e-09, No Iterations 3
GAMG:  Solving for p, Initial residual = 1.1148433e-05, Final residual = 9.6281611e-08, No Iterations 3
time step continuity errors : sum local = 3.2160113e-08, global = 6.1255695e-10, cumulative = -0.00029641375
ExecutionTime = 236.86862 s  ClockTime = 239 s

Time = 1857s

smoothSolver:  Solving for Ux, Initial residual = 5.8480175e-07, Final residual = 2.2035961e-08, No Iterations 3
smoothSolver:  Solving for Uy, Initial residual = 3.1549028e-06, Final residual = 1.205832e-07, No Iterations 3
smoothSolver:  Solving for Uz, Initial residual = 1.8343106e-07, Final residual = 6.6236113e-09, No Iterations 3
GAMG:  Solving for p, Initial residual = 1.110398e-05, Final residual = 9.624952e-08, No Iterations 3
time step continuity errors : sum local = 3.2149392e-08, global = 6.0168505e-10, cumulative = -0.00029641314
ExecutionTime = 236.99435 s  ClockTime = 240 s

Time = 1858s

smoothSolver:  Solving for Ux, Initial residual = 5.8275216e-07, Final residual = 2.1965834e-08, No Iterations 3
smoothSolver:  Solving for Uy, Initial residual = 3.1458008e-06, Final residual = 1.2012359e-07, No Iterations 3
smoothSolver:  Solving for Uz, Initial residual = 1.828965e-07, Final residual = 6.5984414e-09, No Iterations 3
GAMG:  Solving for p, Initial residual = 1.1060728e-05, Final residual = 9.6201426e-08, No Iterations 3
time step continuity errors : sum local = 3.2133326e-08, global = 5.8644643e-10, cumulative = -0.00029641256
ExecutionTime = 237.11907 s  ClockTime = 240 s

Time = 1859s

smoothSolver:  Solving for Ux, Initial residual = 5.8050465e-07, Final residual = 2.1887495e-08, No Iterations 3
smoothSolver:  Solving for Uy, Initial residual = 3.1360691e-06, Final residual = 1.1960022e-07, No Iterations 3
smoothSolver:  Solving for Uz, Initial residual = 1.8228609e-07, Final residual = 6.5716672e-09, No Iterations 3
GAMG:  Solving for p, Initial residual = 1.1012938e-05, Final residual = 9.6072978e-08, No Iterations 3
time step continuity errors : sum local = 3.2090421e-08, global = 5.6469294e-10, cumulative = -0.00029641199
ExecutionTime = 237.24539 s  ClockTime = 240 s

Time = 1860s

smoothSolver:  Solving for Ux, Initial residual = 5.7816352e-07, Final residual = 2.1806381e-08, No Iterations 3
smoothSolver:  Solving for Uy, Initial residual = 3.1254181e-06, Final residual = 1.1902834e-07, No Iterations 3
smoothSolver:  Solving for Uz, Initial residual = 1.8162266e-07, Final residual = 6.5435065e-09, No Iterations 3
GAMG:  Solving for p, Initial residual = 1.0965964e-05, Final residual = 9.5884008e-08, No Iterations 3
time step continuity errors : sum local = 3.2027299e-08, global = 5.3456804e-10, cumulative = -0.00029641146
ExecutionTime = 237.36986 s  ClockTime = 240 s

Time = 1861s

smoothSolver:  Solving for Ux, Initial residual = 5.7572619e-07, Final residual = 2.171742e-08, No Iterations 3
smoothSolver:  Solving for Uy, Initial residual = 3.1139401e-06, Final residual = 1.1842672e-07, No Iterations 3
smoothSolver:  Solving for Uz, Initial residual = 1.8092219e-07, Final residual = 6.5132286e-09, No Iterations 3
GAMG:  Solving for p, Initial residual = 1.0922255e-05, Final residual = 9.5593947e-08, No Iterations 3
time step continuity errors : sum local = 3.1930412e-08, global = 4.8832668e-10, cumulative = -0.00029641097
ExecutionTime = 237.49677 s  ClockTime = 240 s

Time = 1862s

smoothSolver:  Solving for Ux, Initial residual = 5.7320755e-07, Final residual = 2.1608904e-08, No Iterations 3
smoothSolver:  Solving for Uy, Initial residual = 3.1020697e-06, Final residual = 1.1775097e-07, No Iterations 3
smoothSolver:  Solving for Uz, Initial residual = 1.8014673e-07, Final residual = 6.4816528e-09, No Iterations 3
GAMG:  Solving for p, Initial residual = 1.0879958e-05, Final residual = 9.5159188e-08, No Iterations 3
time step continuity errors : sum local = 3.1785192e-08, global = 4.347183e-10, cumulative = -0.00029641054
ExecutionTime = 237.62145 s  ClockTime = 240 s

Time = 1863s

smoothSolver:  Solving for Ux, Initial residual = 5.7067891e-07, Final residual = 2.1501197e-08, No Iterations 3
smoothSolver:  Solving for Uy, Initial residual = 3.0894321e-06, Final residual = 1.1702071e-07, No Iterations 3
smoothSolver:  Solving for Uz, Initial residual = 1.7934559e-07, Final residual = 6.4486484e-09, No Iterations 3
GAMG:  Solving for p, Initial residual = 1.0835634e-05, Final residual = 9.4635585e-08, No Iterations 3
time step continuity errors : sum local = 3.1610297e-08, global = 3.7456715e-10, cumulative = -0.00029641016
ExecutionTime = 237.74574 s  ClockTime = 240 s

Time = 1864s

smoothSolver:  Solving for Ux, Initial residual = 5.68239e-07, Final residual = 2.1389568e-08, No Iterations 3
smoothSolver:  Solving for Uy, Initial residual = 3.0762671e-06, Final residual = 1.1621547e-07, No Iterations 3
smoothSolver:  Solving for Uz, Initial residual = 1.7848805e-07, Final residual = 6.4146018e-09, No Iterations 3
GAMG:  Solving for p, Initial residual = 1.0792739e-05, Final residual = 9.4061225e-08, No Iterations 3
time step continuity errors : sum local = 3.1418448e-08, global = 2.9826596e-10, cumulative = -0.00029640986
ExecutionTime = 237.87191 s  ClockTime = 240 s

Time = 1865s

smoothSolver:  Solving for Ux, Initial residual = 5.6573132e-07, Final residual = 2.1273178e-08, No Iterations 3
smoothSolver:  Solving for Uy, Initial residual = 3.062324e-06, Final residual = 1.1539975e-07, No Iterations 3
smoothSolver:  Solving for Uz, Initial residual = 1.7754906e-07, Final residual = 6.3805439e-09, No Iterations 3
GAMG:  Solving for p, Initial residual = 1.0749301e-05, Final residual = 9.3413976e-08, No Iterations 3
time step continuity errors : sum local = 3.1202252e-08, global = 2.1523889e-10, cumulative = -0.00029640965
ExecutionTime = 237.99804 s  ClockTime = 241 s

Time = 1866s

smoothSolver:  Solving for Ux, Initial residual = 5.6302774e-07, Final residual = 2.1151782e-08, No Iterations 3
smoothSolver:  Solving for Uy, Initial residual = 3.0473035e-06, Final residual = 1.1459476e-07, No Iterations 3
smoothSolver:  Solving for Uz, Initial residual = 1.7660715e-07, Final residual = 6.3453498e-09, No Iterations 3
GAMG:  Solving for p, Initial residual = 1.0703126e-05, Final residual = 9.2669498e-08, No Iterations 3
time step continuity errors : sum local = 3.0953581e-08, global = 1.3002963e-10, cumulative = -0.00029640952
ExecutionTime = 238.12368 s  ClockTime = 241 s

Time = 1867s

smoothSolver:  Solving for Ux, Initial residual = 5.6012806e-07, Final residual = 2.1033718e-08, No Iterations 3
smoothSolver:  Solving for Uy, Initial residual = 3.0321055e-06, Final residual = 1.1382719e-07, No Iterations 3
smoothSolver:  Solving for Uz, Initial residual = 1.7563819e-07, Final residual = 6.3122493e-09, No Iterations 3
GAMG:  Solving for p, Initial residual = 1.0659581e-05, Final residual = 9.1996771e-08, No Iterations 3
time step continuity errors : sum local = 3.0728876e-08, global = 3.7507112e-11, cumulative = -0.00029640948
ExecutionTime = 238.25162 s  ClockTime = 241 s

Time = 1868s

smoothSolver:  Solving for Ux, Initial residual = 5.5733244e-07, Final residual = 2.0922652e-08, No Iterations 3
smoothSolver:  Solving for Uy, Initial residual = 3.0163872e-06, Final residual = 1.1313676e-07, No Iterations 3
smoothSolver:  Solving for Uz, Initial residual = 1.7468237e-07, Final residual = 6.2828922e-09, No Iterations 3
GAMG:  Solving for p, Initial residual = 1.0616774e-05, Final residual = 9.1353691e-08, No Iterations 3
time step continuity errors : sum local = 3.0514074e-08, global = -5.2311288e-11, cumulative = -0.00029640953
ExecutionTime = 238.37652 s  ClockTime = 241 s

Time = 1869s

smoothSolver:  Solving for Ux, Initial residual = 5.5461806e-07, Final residual = 2.0813776e-08, No Iterations 3
smoothSolver:  Solving for Uy, Initial residual = 3.0008773e-06, Final residual = 1.1251156e-07, No Iterations 3
smoothSolver:  Solving for Uz, Initial residual = 1.737111e-07, Final residual = 6.2551373e-09, No Iterations 3
GAMG:  Solving for p, Initial residual = 1.0575126e-05, Final residual = 9.0773592e-08, No Iterations 3
time step continuity errors : sum local = 3.0320309e-08, global = -1.4103086e-10, cumulative = -0.00029640967
ExecutionTime = 238.50063 s  ClockTime = 241 s

Time = 1870s

smoothSolver:  Solving for Ux, Initial residual = 5.5203828e-07, Final residual = 2.0713499e-08, No Iterations 3
smoothSolver:  Solving for Uy, Initial residual = 2.9848805e-06, Final residual = 1.1187516e-07, No Iterations 3
smoothSolver:  Solving for Uz, Initial residual = 1.7272826e-07, Final residual = 6.2271787e-09, No Iterations 3
GAMG:  Solving for p, Initial residual = 1.0532868e-05, Final residual = 9.0291619e-08, No Iterations 3
time step continuity errors : sum local = 3.015932e-08, global = -2.2472321e-10, cumulative = -0.0002964099
ExecutionTime = 238.62521 s  ClockTime = 241 s

Time = 1871s

smoothSolver:  Solving for Ux, Initial residual = 5.4968954e-07, Final residual = 2.0607801e-08, No Iterations 3
smoothSolver:  Solving for Uy, Initial residual = 2.9690292e-06, Final residual = 1.1127802e-07, No Iterations 3
smoothSolver:  Solving for Uz, Initial residual = 1.7178008e-07, Final residual = 6.1990634e-09, No Iterations 3
GAMG:  Solving for p, Initial residual = 1.048919e-05, Final residual = 8.9881768e-08, No Iterations 3
time step continuity errors : sum local = 3.0022422e-08, global = -3.018758e-10, cumulative = -0.0002964102
ExecutionTime = 238.7503 s  ClockTime = 241 s

Time = 1872s

smoothSolver:  Solving for Ux, Initial residual = 5.4747868e-07, Final residual = 2.0511761e-08, No Iterations 3
smoothSolver:  Solving for Uy, Initial residual = 2.9531842e-06, Final residual = 1.1072401e-07, No Iterations 3
smoothSolver:  Solving for Uz, Initial residual = 1.7088063e-07, Final residual = 6.1691419e-09, No Iterations 3
GAMG:  Solving for p, Initial residual = 1.0447093e-05, Final residual = 8.9542394e-08, No Iterations 3
time step continuity errors : sum local = 2.9909065e-08, global = -3.714119e-10, cumulative = -0.00029641057
ExecutionTime = 238.87533 s  ClockTime = 241 s

Time = 1873s

smoothSolver:  Solving for Ux, Initial residual = 5.4548223e-07, Final residual = 2.0425329e-08, No Iterations 3
smoothSolver:  Solving for Uy, Initial residual = 2.93834e-06, Final residual = 1.1023628e-07, No Iterations 3
smoothSolver:  Solving for Uz, Initial residual = 1.7002589e-07, Final residual = 6.1389764e-09, No Iterations 3
GAMG:  Solving for p, Initial residual = 1.0407602e-05, Final residual = 8.9231058e-08, No Iterations 3
time step continuity errors : sum local = 2.9805073e-08, global = -4.3267095e-10, cumulative = -0.000296411
ExecutionTime = 238.99932 s  ClockTime = 242 s

Time = 1874s

smoothSolver:  Solving for Ux, Initial residual = 5.433793e-07, Final residual = 2.0345116e-08, No Iterations 3
smoothSolver:  Solving for Uy, Initial residual = 2.9239813e-06, Final residual = 1.0982224e-07, No Iterations 3
smoothSolver:  Solving for Uz, Initial residual = 1.6923796e-07, Final residual = 6.1080325e-09, No Iterations 3
GAMG:  Solving for p, Initial residual = 1.0369936e-05, Final residual = 8.8960877e-08, No Iterations 3
time step continuity errors : sum local = 2.9714828e-08, global = -4.8535172e-10, cumulative = -0.00029641149
ExecutionTime = 239.12351 s  ClockTime = 242 s

Time = 1875s

smoothSolver:  Solving for Ux, Initial residual = 5.4146116e-07, Final residual = 2.027003e-08, No Iterations 3
smoothSolver:  Solving for Uy, Initial residual = 2.9106283e-06, Final residual = 1.0949847e-07, No Iterations 3
smoothSolver:  Solving for Uz, Initial residual = 1.6851292e-07, Final residual = 6.0766277e-09, No Iterations 3
GAMG:  Solving for p, Initial residual = 1.0337142e-05, Final residual = 8.8773627e-08, No Iterations 3
time step continuity errors : sum local = 2.9652284e-08, global = -5.2946103e-10, cumulative = -0.00029641202
ExecutionTime = 239.24682 s  ClockTime = 242 s

Time = 1876s

smoothSolver:  Solving for Ux, Initial residual = 5.3959014e-07, Final residual = 2.0198155e-08, No Iterations 3
smoothSolver:  Solving for Uy, Initial residual = 2.8982357e-06, Final residual = 1.0925886e-07, No Iterations 3
smoothSolver:  Solving for Uz, Initial residual = 1.678249e-07, Final residual = 6.0458377e-09, No Iterations 3
GAMG:  Solving for p, Initial residual = 1.0309905e-05, Final residual = 8.8630427e-08, No Iterations 3
time step continuity errors : sum local = 2.9604453e-08, global = -5.6523064e-10, cumulative = -0.00029641258
ExecutionTime = 239.37092 s  ClockTime = 242 s

Time = 1877s

smoothSolver:  Solving for Ux, Initial residual = 5.3786118e-07, Final residual = 2.0134469e-08, No Iterations 3
smoothSolver:  Solving for Uy, Initial residual = 2.8869882e-06, Final residual = 1.0907102e-07, No Iterations 3
smoothSolver:  Solving for Uz, Initial residual = 1.6721381e-07, Final residual = 6.0184762e-09, No Iterations 3
GAMG:  Solving for p, Initial residual = 1.0282155e-05, Final residual = 8.854914e-08, No Iterations 3
time step continuity errors : sum local = 2.9577303e-08, global = -5.9301707e-10, cumulative = -0.00029641318
ExecutionTime = 239.49665 s  ClockTime = 242 s

Time = 1878s

smoothSolver:  Solving for Ux, Initial residual = 5.3615443e-07, Final residual = 2.0077532e-08, No Iterations 3
smoothSolver:  Solving for Uy, Initial residual = 2.8764409e-06, Final residual = 1.0885997e-07, No Iterations 3
smoothSolver:  Solving for Uz, Initial residual = 1.666939e-07, Final residual = 5.9949533e-09, No Iterations 3
GAMG:  Solving for p, Initial residual = 1.0255028e-05, Final residual = 8.8563581e-08, No Iterations 3
time step continuity errors : sum local = 2.9582128e-08, global = -5.9842585e-10, cumulative = -0.00029641378
ExecutionTime = 239.62125 s  ClockTime = 242 s

Time = 1879s

smoothSolver:  Solving for Ux, Initial residual = 5.3443912e-07, Final residual = 2.0030421e-08, No Iterations 3
smoothSolver:  Solving for Uy, Initial residual = 2.8667158e-06, Final residual = 1.0869118e-07, No Iterations 3
smoothSolver:  Solving for Uz, Initial residual = 1.6626417e-07, Final residual = 5.9742133e-09, No Iterations 3
GAMG:  Solving for p, Initial residual = 1.0227702e-05, Final residual = 8.8588521e-08, No Iterations 3
time step continuity errors : sum local = 2.9590459e-08, global = -6.0498952e-10, cumulative = -0.00029641438
ExecutionTime = 239.74525 s  ClockTime = 242 s

Time = 1880s

smoothSolver:  Solving for Ux, Initial residual = 5.3276452e-07, Final residual = 1.9984165e-08, No Iterations 3
smoothSolver:  Solving for Uy, Initial residual = 2.8582837e-06, Final residual = 1.0852706e-07, No Iterations 3
smoothSolver:  Solving for Uz, Initial residual = 1.6588645e-07, Final residual = 5.9574451e-09, No Iterations 3
GAMG:  Solving for p, Initial residual = 1.0200111e-05, Final residual = 8.8613158e-08, No Iterations 3
time step continuity errors : sum local = 2.959869e-08, global = -6.0102003e-10, cumulative = -0.00029641498
ExecutionTime = 239.87063 s  ClockTime = 242 s

Time = 1881s

smoothSolver:  Solving for Ux, Initial residual = 5.3120336e-07, Final residual = 1.9944519e-08, No Iterations 3
smoothSolver:  Solving for Uy, Initial residual = 2.8505273e-06, Final residual = 1.0829884e-07, No Iterations 3
smoothSolver:  Solving for Uz, Initial residual = 1.6556354e-07, Final residual = 5.9419336e-09, No Iterations 3
GAMG:  Solving for p, Initial residual = 1.0169339e-05, Final residual = 8.8662187e-08, No Iterations 3
time step continuity errors : sum local = 2.9615069e-08, global = -5.8746424e-10, cumulative = -0.00029641557
ExecutionTime = 239.99475 s  ClockTime = 243 s

Time = 1882s

smoothSolver:  Solving for Ux, Initial residual = 5.2983329e-07, Final residual = 1.9904406e-08, No Iterations 3
smoothSolver:  Solving for Uy, Initial residual = 2.8436585e-06, Final residual = 1.0804763e-07, No Iterations 3
smoothSolver:  Solving for Uz, Initial residual = 1.6527508e-07, Final residual = 5.9278232e-09, No Iterations 3
GAMG:  Solving for p, Initial residual = 1.0135851e-05, Final residual = 8.8694735e-08, No Iterations 3
time step continuity errors : sum local = 2.9625942e-08, global = -5.6738795e-10, cumulative = -0.00029641614
ExecutionTime = 240.11863 s  ClockTime = 243 s

Time = 1883s

smoothSolver:  Solving for Ux, Initial residual = 5.2857284e-07, Final residual = 1.9860509e-08, No Iterations 3
smoothSolver:  Solving for Uy, Initial residual = 2.8376644e-06, Final residual = 1.0778328e-07, No Iterations 3
smoothSolver:  Solving for Uz, Initial residual = 1.6500637e-07, Final residual = 5.9140281e-09, No Iterations 3
GAMG:  Solving for p, Initial residual = 1.0102722e-05, Final residual = 8.8690434e-08, No Iterations 3
time step continuity errors : sum local = 2.9624506e-08, global = -5.4742065e-10, cumulative = -0.00029641668
ExecutionTime = 240.2431 s  ClockTime = 243 s

Time = 1884s

smoothSolver:  Solving for Ux, Initial residual = 5.27311e-07, Final residual = 1.9815037e-08, No Iterations 3
smoothSolver:  Solving for Uy, Initial residual = 2.8318756e-06, Final residual = 1.074945e-07, No Iterations 3
smoothSolver:  Solving for Uz, Initial residual = 1.6470107e-07, Final residual = 5.9009041e-09, No Iterations 3
GAMG:  Solving for p, Initial residual = 1.006965e-05, Final residual = 8.8612954e-08, No Iterations 3
time step continuity errors : sum local = 2.9598627e-08, global = -5.1855388e-10, cumulative = -0.0002964172
ExecutionTime = 240.36761 s  ClockTime = 243 s

Time = 1885s

smoothSolver:  Solving for Ux, Initial residual = 5.2576375e-07, Final residual = 1.9765115e-08, No Iterations 3
smoothSolver:  Solving for Uy, Initial residual = 2.8257231e-06, Final residual = 1.0716353e-07, No Iterations 3
smoothSolver:  Solving for Uz, Initial residual = 1.6433234e-07, Final residual = 5.887353e-09, No Iterations 3
GAMG:  Solving for p, Initial residual = 1.003578e-05, Final residual = 8.8463157e-08, No Iterations 3
time step continuity errors : sum local = 2.9548593e-08, global = -4.874616e-10, cumulative = -0.00029641769
ExecutionTime = 240.49349 s  ClockTime = 243 s

Time = 1886s

smoothSolver:  Solving for Ux, Initial residual = 5.2418889e-07, Final residual = 1.9711742e-08, No Iterations 3
smoothSolver:  Solving for Uy, Initial residual = 2.8186827e-06, Final residual = 1.0680198e-07, No Iterations 3
smoothSolver:  Solving for Uz, Initial residual = 1.6393337e-07, Final residual = 5.8717643e-09, No Iterations 3
GAMG:  Solving for p, Initial residual = 1.0003223e-05, Final residual = 8.8222385e-08, No Iterations 3
time step continuity errors : sum local = 2.9468171e-08, global = -4.5421931e-10, cumulative = -0.00029641814
ExecutionTime = 240.61872 s  ClockTime = 243 s

Time = 1887s

smoothSolver:  Solving for Ux, Initial residual = 5.2256e-07, Final residual = 1.965299e-08, No Iterations 3
smoothSolver:  Solving for Uy, Initial residual = 2.8115629e-06, Final residual = 1.0641049e-07, No Iterations 3
smoothSolver:  Solving for Uz, Initial residual = 1.6347757e-07, Final residual = 5.8538266e-09, No Iterations 3
GAMG:  Solving for p, Initial residual = 9.9704119e-06, Final residual = 8.786808e-08, No Iterations 3
time step continuity errors : sum local = 2.9349827e-08, global = -4.1879197e-10, cumulative = -0.00029641856
ExecutionTime = 240.74355 s  ClockTime = 243 s


SIMPLE solution converged in 1887 iterations

End

Finalising parallel run
