/*---------------------------------------------------------------------------*\
  =========                 |
  \\      /  F ield         | OpenFOAM: The Open Source CFD Toolbox
   \\    /   O peration     | Website:  https://openfoam.org
    \\  /    A nd           | Version:  11
     \\/     M anipulation  |
\*---------------------------------------------------------------------------*/
Build  : 11-e1fc8c682ae6
Exec   : foamRun -solver incompressibleFluid -parallel
Date   : Feb 07 2026
Time   : 12:07:40
Host   : "ip-172-31-18-192"
PID    : 117270
I/O    : uncollated
Case   : /home/ubuntu/cases/bifurcation_angle30_500_ascii/Re100
nProcs : 16
Slaves : 
15
(
"ip-172-31-18-192.117271"
"ip-172-31-18-192.117272"
"ip-172-31-18-192.117273"
"ip-172-31-18-192.117274"
"ip-172-31-18-192.117275"
"ip-172-31-18-192.117276"
"ip-172-31-18-192.117277"
"ip-172-31-18-192.117278"
"ip-172-31-18-192.117279"
"ip-172-31-18-192.117280"
"ip-172-31-18-192.117281"
"ip-172-31-18-192.117282"
"ip-172-31-18-192.117283"
"ip-172-31-18-192.117284"
"ip-172-31-18-192.117285"
)

Pstream initialised with:
    floatTransfer      : false
    nProcsSimpleSum    : 0
    commsType          : nonBlocking
    polling iterations : 0
sigFpe : Enabling floating point exception trapping (FOAM_SIGFPE).
fileModificationChecking : Monitoring run-time modified files using timeStampMaster (fileModificationSkew 10)
allowSystemOperations : Allowing user-supplied system call operations

// * * * * * * * * * * * * * * * * * * * * * * * * * * * * * * * * * * * * * //
Create time

Create mesh for time = 0

Selecting solver incompressibleFluid
Selecting viscosity model Newtonian
Selecting turbulence model type laminar
Selecting laminar stress model Stokes
No MRF models present


SIMPLE: Convergence criteria found
        p: tolerance 1e-05
        U: tolerance 1e-05


SIMPLE: Operating solver in steady-state mode with 1 outer corrector
SIMPLE: Operating solver in SIMPLE mode



Starting time loop

wallShearStress wallShearStress:
    processing wall patches: 
        wall-fluid_domain

Time = 1s

smoothSolver:  Solving for Ux, Initial residual = 1, Final residual = 0.051211473, No Iterations 1
smoothSolver:  Solving for Uy, Initial residual = 1, Final residual = 0.054681367, No Iterations 1
smoothSolver:  Solving for Uz, Initial residual = 1, Final residual = 0.03649506, No Iterations 1
GAMG:  Solving for p, Initial residual = 1, Final residual = 0.0073146099, No Iterations 10
time step continuity errors : sum local = 7.472515e-05, global = -1.7836884e-06, cumulative = -1.7836884e-06
ExecutionTime = 0.523006 s  ClockTime = 1 s

Time = 2s

smoothSolver:  Solving for Ux, Initial residual = 0.25637658, Final residual = 0.019262436, No Iterations 2
smoothSolver:  Solving for Uy, Initial residual = 0.26821543, Final residual = 0.011199406, No Iterations 2
smoothSolver:  Solving for Uz, Initial residual = 0.30770265, Final residual = 0.0099724467, No Iterations 3
GAMG:  Solving for p, Initial residual = 0.20726977, Final residual = 0.001181964, No Iterations 6
time step continuity errors : sum local = 0.0017946574, global = -3.6538998e-05, cumulative = -3.8322686e-05
ExecutionTime = 0.66927 s  ClockTime = 1 s

Time = 3s

smoothSolver:  Solving for Ux, Initial residual = 0.22048759, Final residual = 0.021933235, No Iterations 2
smoothSolver:  Solving for Uy, Initial residual = 0.11970128, Final residual = 0.0068172065, No Iterations 2
smoothSolver:  Solving for Uz, Initial residual = 0.49439173, Final residual = 0.017366299, No Iterations 3
GAMG:  Solving for p, Initial residual = 0.12144658, Final residual = 0.0011153998, No Iterations 3
time step continuity errors : sum local = 0.0050705006, global = 0.00013971606, cumulative = 0.00010139337
ExecutionTime = 0.792332 s  ClockTime = 1 s

Time = 4s

smoothSolver:  Solving for Ux, Initial residual = 0.13761707, Final residual = 0.0044916307, No Iterations 3
smoothSolver:  Solving for Uy, Initial residual = 0.064976857, Final residual = 0.0037399671, No Iterations 2
smoothSolver:  Solving for Uz, Initial residual = 0.32079648, Final residual = 0.011288964, No Iterations 3
GAMG:  Solving for p, Initial residual = 0.081149807, Final residual = 0.00032860185, No Iterations 6
time step continuity errors : sum local = 0.0013930373, global = 1.9475074e-05, cumulative = 0.00012086845
ExecutionTime = 0.937227 s  ClockTime = 1 s

Time = 5s

smoothSolver:  Solving for Ux, Initial residual = 0.074978653, Final residual = 0.0067047332, No Iterations 2
smoothSolver:  Solving for Uy, Initial residual = 0.20935507, Final residual = 0.013303071, No Iterations 2
smoothSolver:  Solving for Uz, Initial residual = 0.11211443, Final residual = 0.0039480443, No Iterations 3
GAMG:  Solving for p, Initial residual = 0.10110479, Final residual = 0.00073711239, No Iterations 6
time step continuity errors : sum local = 0.0013947613, global = 2.9610772e-05, cumulative = 0.00015047922
ExecutionTime = 1.081466 s  ClockTime = 1 s

Time = 6s

smoothSolver:  Solving for Ux, Initial residual = 0.095862663, Final residual = 0.0078744803, No Iterations 2
smoothSolver:  Solving for Uy, Initial residual = 0.39372602, Final residual = 0.024296056, No Iterations 2
smoothSolver:  Solving for Uz, Initial residual = 0.085668339, Final residual = 0.0029496982, No Iterations 3
GAMG:  Solving for p, Initial residual = 0.35054647, Final residual = 0.0029706639, No Iterations 4
time step continuity errors : sum local = 0.0041238481, global = 7.5842312e-05, cumulative = 0.00022632153
ExecutionTime = 1.211675 s  ClockTime = 2 s

Time = 7s

smoothSolver:  Solving for Ux, Initial residual = 0.13204187, Final residual = 0.012203839, No Iterations 2
smoothSolver:  Solving for Uy, Initial residual = 0.22695283, Final residual = 0.013386195, No Iterations 2
smoothSolver:  Solving for Uz, Initial residual = 0.21332094, Final residual = 0.0074647276, No Iterations 3
GAMG:  Solving for p, Initial residual = 0.22041995, Final residual = 0.0010342311, No Iterations 4
time step continuity errors : sum local = 0.0024102632, global = -2.1235919e-05, cumulative = 0.00020508561
ExecutionTime = 1.341516 s  ClockTime = 2 s

Time = 8s

smoothSolver:  Solving for Ux, Initial residual = 0.10655935, Final residual = 0.010544516, No Iterations 2
smoothSolver:  Solving for Uy, Initial residual = 0.12702184, Final residual = 0.0085559384, No Iterations 2
smoothSolver:  Solving for Uz, Initial residual = 0.2031542, Final residual = 0.0071083564, No Iterations 3
GAMG:  Solving for p, Initial residual = 0.17112339, Final residual = 0.00097382346, No Iterations 5
time step continuity errors : sum local = 0.0017963767, global = -1.9107631e-05, cumulative = 0.00018597798
ExecutionTime = 1.477972 s  ClockTime = 2 s

Time = 9s

smoothSolver:  Solving for Ux, Initial residual = 0.062385193, Final residual = 0.0053909006, No Iterations 2
smoothSolver:  Solving for Uy, Initial residual = 0.2805268, Final residual = 0.020949438, No Iterations 2
smoothSolver:  Solving for Uz, Initial residual = 0.057502608, Final residual = 0.0019027854, No Iterations 3
GAMG:  Solving for p, Initial residual = 0.21019501, Final residual = 0.0010203071, No Iterations 6
time step continuity errors : sum local = 0.00062355007, global = -1.1345061e-05, cumulative = 0.00017463292
ExecutionTime = 1.621856 s  ClockTime = 2 s

Time = 10s

smoothSolver:  Solving for Ux, Initial residual = 0.074108278, Final residual = 0.0064534459, No Iterations 2
smoothSolver:  Solving for Uy, Initial residual = 0.37764931, Final residual = 0.025554143, No Iterations 2
smoothSolver:  Solving for Uz, Initial residual = 0.07542263, Final residual = 0.002652106, No Iterations 3
GAMG:  Solving for p, Initial residual = 0.24829175, Final residual = 0.0019575269, No Iterations 4
time step continuity errors : sum local = 0.0016211972, global = -2.467912e-05, cumulative = 0.0001499538
ExecutionTime = 1.752988 s  ClockTime = 2 s

Time = 11s

smoothSolver:  Solving for Ux, Initial residual = 0.068989599, Final residual = 0.0065007873, No Iterations 2
smoothSolver:  Solving for Uy, Initial residual = 0.20519274, Final residual = 0.012646054, No Iterations 2
smoothSolver:  Solving for Uz, Initial residual = 0.10221291, Final residual = 0.003603893, No Iterations 3
GAMG:  Solving for p, Initial residual = 0.18269155, Final residual = 0.001323697, No Iterations 4
time step continuity errors : sum local = 0.0015046686, global = 1.3582672e-05, cumulative = 0.00016353647
ExecutionTime = 1.881538 s  ClockTime = 2 s

Time = 12s

smoothSolver:  Solving for Ux, Initial residual = 0.043671597, Final residual = 0.00138563, No Iterations 3
smoothSolver:  Solving for Uy, Initial residual = 0.14598911, Final residual = 0.011581775, No Iterations 2
smoothSolver:  Solving for Uz, Initial residual = 0.065083888, Final residual = 0.0022995568, No Iterations 3
GAMG:  Solving for p, Initial residual = 0.14084377, Final residual = 0.0010780254, No Iterations 5
time step continuity errors : sum local = 0.00087521501, global = 7.7387173e-06, cumulative = 0.00017127519
ExecutionTime = 2.020528 s  ClockTime = 2 s

Time = 13s

smoothSolver:  Solving for Ux, Initial residual = 0.025832452, Final residual = 0.0021917966, No Iterations 2
smoothSolver:  Solving for Uy, Initial residual = 0.31276721, Final residual = 0.02507935, No Iterations 2
smoothSolver:  Solving for Uz, Initial residual = 0.013505686, Final residual = 0.0012507771, No Iterations 2
GAMG:  Solving for p, Initial residual = 0.28883708, Final residual = 0.0028306656, No Iterations 5
time step continuity errors : sum local = 0.00065471816, global = 3.2984507e-06, cumulative = 0.00017457364
ExecutionTime = 2.156919 s  ClockTime = 2 s

Time = 14s

smoothSolver:  Solving for Ux, Initial residual = 0.033790574, Final residual = 0.0030148822, No Iterations 2
smoothSolver:  Solving for Uy, Initial residual = 0.29926901, Final residual = 0.021782182, No Iterations 2
smoothSolver:  Solving for Uz, Initial residual = 0.037098288, Final residual = 0.0012814708, No Iterations 3
GAMG:  Solving for p, Initial residual = 0.25004951, Final residual = 0.0015919408, No Iterations 4
time step continuity errors : sum local = 0.00068003309, global = 7.3655545e-06, cumulative = 0.0001819392
ExecutionTime = 2.287962 s  ClockTime = 3 s

Time = 15s

smoothSolver:  Solving for Ux, Initial residual = 0.031804847, Final residual = 0.0030134913, No Iterations 2
smoothSolver:  Solving for Uy, Initial residual = 0.15754834, Final residual = 0.010500372, No Iterations 2
smoothSolver:  Solving for Uz, Initial residual = 0.046693778, Final residual = 0.001620335, No Iterations 3
GAMG:  Solving for p, Initial residual = 0.18958251, Final residual = 0.0016635198, No Iterations 4
time step continuity errors : sum local = 0.00082819387, global = -7.9072158e-06, cumulative = 0.00017403198
ExecutionTime = 2.417475 s  ClockTime = 3 s

Time = 16s

smoothSolver:  Solving for Ux, Initial residual = 0.021541871, Final residual = 0.0021401301, No Iterations 2
smoothSolver:  Solving for Uy, Initial residual = 0.14483082, Final residual = 0.012408325, No Iterations 2
smoothSolver:  Solving for Uz, Initial residual = 0.026737756, Final residual = 0.00091873312, No Iterations 3
GAMG:  Solving for p, Initial residual = 0.15362412, Final residual = 0.0013320923, No Iterations 5
time step continuity errors : sum local = 0.00040710309, global = -3.3874977e-06, cumulative = 0.00017064448
ExecutionTime = 2.556105 s  ClockTime = 3 s

Time = 17s

smoothSolver:  Solving for Ux, Initial residual = 0.01440606, Final residual = 0.0012132138, No Iterations 2
smoothSolver:  Solving for Uy, Initial residual = 0.25083265, Final residual = 0.020566237, No Iterations 2
smoothSolver:  Solving for Uz, Initial residual = 0.0075533647, Final residual = 0.00071794968, No Iterations 2
GAMG:  Solving for p, Initial residual = 0.30998566, Final residual = 0.0023274635, No Iterations 5
time step continuity errors : sum local = 0.00026970296, global = -1.4271073e-06, cumulative = 0.00016921738
ExecutionTime = 2.691996 s  ClockTime = 3 s

Time = 18s

smoothSolver:  Solving for Ux, Initial residual = 0.017633911, Final residual = 0.0016418673, No Iterations 2
smoothSolver:  Solving for Uy, Initial residual = 0.20053422, Final residual = 0.014944217, No Iterations 2
smoothSolver:  Solving for Uz, Initial residual = 0.020931514, Final residual = 0.0007466899, No Iterations 3
GAMG:  Solving for p, Initial residual = 0.1819247, Final residual = 0.0010670166, No Iterations 4
time step continuity errors : sum local = 0.00029853873, global = -4.9813381e-06, cumulative = 0.00016423604
ExecutionTime = 2.822382 s  ClockTime = 3 s

Time = 19s

smoothSolver:  Solving for Ux, Initial residual = 0.014342016, Final residual = 0.0014243153, No Iterations 2
smoothSolver:  Solving for Uy, Initial residual = 0.10759868, Final residual = 0.0078377081, No Iterations 2
smoothSolver:  Solving for Uz, Initial residual = 0.020663165, Final residual = 0.00073781342, No Iterations 3
GAMG:  Solving for p, Initial residual = 0.14127774, Final residual = 0.00061710489, No Iterations 5
time step continuity errors : sum local = 0.00017518067, global = 2.0876906e-06, cumulative = 0.00016632373
ExecutionTime = 2.959104 s  ClockTime = 3 s

Time = 20s

smoothSolver:  Solving for Ux, Initial residual = 0.010097002, Final residual = 0.00032320309, No Iterations 3
smoothSolver:  Solving for Uy, Initial residual = 0.11929832, Final residual = 0.010705031, No Iterations 2
smoothSolver:  Solving for Uz, Initial residual = 0.0099251498, Final residual = 0.00035082083, No Iterations 3
GAMG:  Solving for p, Initial residual = 0.10172207, Final residual = 0.0010064342, No Iterations 5
time step continuity errors : sum local = 0.00018315726, global = 1.3030151e-06, cumulative = 0.00016762674
ExecutionTime = 3.098109 s  ClockTime = 3 s

Time = 21s

smoothSolver:  Solving for Ux, Initial residual = 0.0078319209, Final residual = 0.0006922078, No Iterations 2
smoothSolver:  Solving for Uy, Initial residual = 0.15622052, Final residual = 0.013189032, No Iterations 2
smoothSolver:  Solving for Uz, Initial residual = 0.0047729967, Final residual = 0.00045195311, No Iterations 2
GAMG:  Solving for p, Initial residual = 0.28878175, Final residual = 0.001603925, No Iterations 5
time step continuity errors : sum local = 0.00010838003, global = 5.1463538e-07, cumulative = 0.00016814138
ExecutionTime = 3.234617 s  ClockTime = 4 s

Time = 22s

smoothSolver:  Solving for Ux, Initial residual = 0.0077620271, Final residual = 0.00070029783, No Iterations 2
smoothSolver:  Solving for Uy, Initial residual = 0.11500887, Final residual = 0.0089465476, No Iterations 2
smoothSolver:  Solving for Uz, Initial residual = 0.0095553379, Final residual = 0.00032133211, No Iterations 3
GAMG:  Solving for p, Initial residual = 0.18977288, Final residual = 0.0010940377, No Iterations 4
time step continuity errors : sum local = 0.00014047709, global = -3.6739779e-07, cumulative = 0.00016777398
ExecutionTime = 3.365355 s  ClockTime = 4 s

Time = 23s

smoothSolver:  Solving for Ux, Initial residual = 0.0060752384, Final residual = 0.00058164041, No Iterations 2
smoothSolver:  Solving for Uy, Initial residual = 0.064965087, Final residual = 0.0052013591, No Iterations 2
smoothSolver:  Solving for Uz, Initial residual = 0.0083102554, Final residual = 0.00027838301, No Iterations 3
GAMG:  Solving for p, Initial residual = 0.14847183, Final residual = 0.00074579911, No Iterations 5
time step continuity errors : sum local = 8.8196851e-05, global = -9.7098808e-07, cumulative = 0.00016680299
ExecutionTime = 3.501882 s  ClockTime = 4 s

Time = 24s

smoothSolver:  Solving for Ux, Initial residual = 0.0047037768, Final residual = 0.00044767828, No Iterations 2
smoothSolver:  Solving for Uy, Initial residual = 0.07795309, Final residual = 0.0070902139, No Iterations 2
smoothSolver:  Solving for Uz, Initial residual = 0.0035385974, Final residual = 0.00035036418, No Iterations 2
GAMG:  Solving for p, Initial residual = 0.12995458, Final residual = 0.0012269407, No Iterations 5
time step continuity errors : sum local = 7.9661746e-05, global = -5.2274472e-07, cumulative = 0.00016628025
ExecutionTime = 3.636482 s  ClockTime = 4 s

Time = 25s

smoothSolver:  Solving for Ux, Initial residual = 0.0048462821, Final residual = 0.00046256614, No Iterations 2
smoothSolver:  Solving for Uy, Initial residual = 0.084948645, Final residual = 0.0073191202, No Iterations 2
smoothSolver:  Solving for Uz, Initial residual = 0.0045399838, Final residual = 0.00015590271, No Iterations 3
GAMG:  Solving for p, Initial residual = 0.099520705, Final residual = 0.00041908207, No Iterations 5
time step continuity errors : sum local = 4.2611276e-05, global = -3.0464296e-07, cumulative = 0.00016597561
ExecutionTime = 3.773603 s  ClockTime = 4 s

Time = 26s

smoothSolver:  Solving for Ux, Initial residual = 0.0045360096, Final residual = 0.00045077522, No Iterations 2
smoothSolver:  Solving for Uy, Initial residual = 0.059011979, Final residual = 0.0049041265, No Iterations 2
smoothSolver:  Solving for Uz, Initial residual = 0.0056666086, Final residual = 0.00020211691, No Iterations 3
GAMG:  Solving for p, Initial residual = 0.088522295, Final residual = 0.00065768102, No Iterations 4
time step continuity errors : sum local = 8.15851e-05, global = 3.9048017e-07, cumulative = 0.00016636609
ExecutionTime = 3.904292 s  ClockTime = 4 s

Time = 27s

smoothSolver:  Solving for Ux, Initial residual = 0.0038188213, Final residual = 0.00012681274, No Iterations 3
smoothSolver:  Solving for Uy, Initial residual = 0.040033893, Final residual = 0.0037035251, No Iterations 2
smoothSolver:  Solving for Uz, Initial residual = 0.0047568728, Final residual = 0.00016748881, No Iterations 3
GAMG:  Solving for p, Initial residual = 0.062600967, Final residual = 0.00037675522, No Iterations 5
time step continuity errors : sum local = 4.3394806e-05, global = 4.7910817e-07, cumulative = 0.00016684519
ExecutionTime = 4.043256 s  ClockTime = 4 s

Time = 28s

smoothSolver:  Solving for Ux, Initial residual = 0.0035536816, Final residual = 0.00011338309, No Iterations 3
smoothSolver:  Solving for Uy, Initial residual = 0.047308346, Final residual = 0.0044779422, No Iterations 2
smoothSolver:  Solving for Uz, Initial residual = 0.0033524286, Final residual = 0.00011140413, No Iterations 3
GAMG:  Solving for p, Initial residual = 0.04852229, Final residual = 0.00039298209, No Iterations 5
time step continuity errors : sum local = 3.5109699e-05, global = 2.3490314e-07, cumulative = 0.0001670801
ExecutionTime = 4.182724 s  ClockTime = 5 s

Time = 29s

smoothSolver:  Solving for Ux, Initial residual = 0.0031702345, Final residual = 0.00031047691, No Iterations 2
smoothSolver:  Solving for Uy, Initial residual = 0.046197127, Final residual = 0.0041868726, No Iterations 2
smoothSolver:  Solving for Uz, Initial residual = 0.0027329582, Final residual = 8.5979173e-05, No Iterations 3
GAMG:  Solving for p, Initial residual = 0.085000993, Final residual = 0.00070508273, No Iterations 4
time step continuity errors : sum local = 4.7594964e-05, global = 6.1936809e-07, cumulative = 0.00016769947
ExecutionTime = 4.31367 s  ClockTime = 5 s

Time = 30s

smoothSolver:  Solving for Ux, Initial residual = 0.0026747956, Final residual = 0.00026379076, No Iterations 2
smoothSolver:  Solving for Uy, Initial residual = 0.033065553, Final residual = 0.0030097941, No Iterations 2
smoothSolver:  Solving for Uz, Initial residual = 0.0026546898, Final residual = 8.3451811e-05, No Iterations 3
GAMG:  Solving for p, Initial residual = 0.091777174, Final residual = 0.00067523185, No Iterations 4
time step continuity errors : sum local = 4.0923263e-05, global = -2.1663451e-07, cumulative = 0.00016748283
ExecutionTime = 4.443556 s  ClockTime = 5 s

Time = 31s

smoothSolver:  Solving for Ux, Initial residual = 0.0024739731, Final residual = 7.8369854e-05, No Iterations 3
smoothSolver:  Solving for Uy, Initial residual = 0.027276579, Final residual = 0.0026694607, No Iterations 2
smoothSolver:  Solving for Uz, Initial residual = 0.0025611755, Final residual = 8.2328221e-05, No Iterations 3
GAMG:  Solving for p, Initial residual = 0.055617604, Final residual = 0.00029833289, No Iterations 5
time step continuity errors : sum local = 1.9797027e-05, global = -1.7536829e-07, cumulative = 0.00016730746
ExecutionTime = 4.581112 s  ClockTime = 5 s

Time = 32s

smoothSolver:  Solving for Ux, Initial residual = 0.002565827, Final residual = 8.2457922e-05, No Iterations 3
smoothSolver:  Solving for Uy, Initial residual = 0.030092934, Final residual = 0.0029284498, No Iterations 2
smoothSolver:  Solving for Uz, Initial residual = 0.0027555941, Final residual = 9.16851e-05, No Iterations 3
GAMG:  Solving for p, Initial residual = 0.034985964, Final residual = 0.00018285911, No Iterations 5
time step continuity errors : sum local = 1.4309631e-05, global = -6.7730226e-08, cumulative = 0.00016723973
ExecutionTime = 4.720778 s  ClockTime = 5 s

Time = 33s

smoothSolver:  Solving for Ux, Initial residual = 0.0025391371, Final residual = 8.3005275e-05, No Iterations 3
smoothSolver:  Solving for Uy, Initial residual = 0.027937273, Final residual = 0.002694202, No Iterations 2
smoothSolver:  Solving for Uz, Initial residual = 0.0029739904, Final residual = 0.00010127777, No Iterations 3
GAMG:  Solving for p, Initial residual = 0.03556699, Final residual = 0.00024183695, No Iterations 4
time step continuity errors : sum local = 2.1117583e-05, global = -4.1148432e-07, cumulative = 0.00016682825
ExecutionTime = 4.851556 s  ClockTime = 5 s

Time = 34s

smoothSolver:  Solving for Ux, Initial residual = 0.0023821824, Final residual = 7.9850452e-05, No Iterations 3
smoothSolver:  Solving for Uy, Initial residual = 0.022763666, Final residual = 0.00070781477, No Iterations 3
smoothSolver:  Solving for Uz, Initial residual = 0.0029436085, Final residual = 0.00010059596, No Iterations 3
GAMG:  Solving for p, Initial residual = 0.031231488, Final residual = 0.00025713073, No Iterations 4
time step continuity errors : sum local = 2.2904621e-05, global = 1.0645031e-07, cumulative = 0.0001669347
ExecutionTime = 4.983809 s  ClockTime = 5 s

Time = 35s

smoothSolver:  Solving for Ux, Initial residual = 0.0022877532, Final residual = 7.7112371e-05, No Iterations 3
smoothSolver:  Solving for Uy, Initial residual = 0.021049415, Final residual = 0.00067819148, No Iterations 3
smoothSolver:  Solving for Uz, Initial residual = 0.0027227356, Final residual = 9.2211251e-05, No Iterations 3
GAMG:  Solving for p, Initial residual = 0.024605566, Final residual = 0.00011594414, No Iterations 5
time step continuity errors : sum local = 9.8925646e-06, global = 1.1778978e-07, cumulative = 0.00016705249
ExecutionTime = 5.126495 s  ClockTime = 5 s

Time = 36s

smoothSolver:  Solving for Ux, Initial residual = 0.00222307, Final residual = 7.3875324e-05, No Iterations 3
smoothSolver:  Solving for Uy, Initial residual = 0.021165512, Final residual = 0.00067102061, No Iterations 3
smoothSolver:  Solving for Uz, Initial residual = 0.002487867, Final residual = 8.3113884e-05, No Iterations 3
GAMG:  Solving for p, Initial residual = 0.025921461, Final residual = 0.00021457483, No Iterations 4
time step continuity errors : sum local = 1.711527e-05, global = 2.1268115e-07, cumulative = 0.00016726517
ExecutionTime = 5.258785 s  ClockTime = 6 s

Time = 37s

smoothSolver:  Solving for Ux, Initial residual = 0.0021221582, Final residual = 7.0240151e-05, No Iterations 3
smoothSolver:  Solving for Uy, Initial residual = 0.019566106, Final residual = 0.0006204157, No Iterations 3
smoothSolver:  Solving for Uz, Initial residual = 0.0023584336, Final residual = 7.8291219e-05, No Iterations 3
GAMG:  Solving for p, Initial residual = 0.02898181, Final residual = 0.00016509104, No Iterations 4
time step continuity errors : sum local = 1.2606018e-05, global = 2.6880222e-07, cumulative = 0.00016753397
ExecutionTime = 5.391384 s  ClockTime = 6 s

Time = 38s

smoothSolver:  Solving for Ux, Initial residual = 0.0020394092, Final residual = 6.8009509e-05, No Iterations 3
smoothSolver:  Solving for Uy, Initial residual = 0.017842251, Final residual = 0.00057917268, No Iterations 3
smoothSolver:  Solving for Uz, Initial residual = 0.0023081595, Final residual = 7.6857e-05, No Iterations 3
GAMG:  Solving for p, Initial residual = 0.026320316, Final residual = 0.0001532404, No Iterations 4
time step continuity errors : sum local = 1.1684288e-05, global = -9.8511373e-08, cumulative = 0.00016743546
ExecutionTime = 5.522885 s  ClockTime = 6 s

Time = 39s

smoothSolver:  Solving for Ux, Initial residual = 0.0020104456, Final residual = 6.7431879e-05, No Iterations 3
smoothSolver:  Solving for Uy, Initial residual = 0.017543184, Final residual = 0.00057527125, No Iterations 3
smoothSolver:  Solving for Uz, Initial residual = 0.0023010864, Final residual = 7.7252899e-05, No Iterations 3
GAMG:  Solving for p, Initial residual = 0.022027656, Final residual = 0.00014630122, No Iterations 4
time step continuity errors : sum local = 1.1455164e-05, global = -1.5023535e-07, cumulative = 0.00016728522
ExecutionTime = 5.654714 s  ClockTime = 6 s

Time = 40s

smoothSolver:  Solving for Ux, Initial residual = 0.0019899502, Final residual = 6.7045948e-05, No Iterations 3
smoothSolver:  Solving for Uy, Initial residual = 0.017355153, Final residual = 0.00056868226, No Iterations 3
smoothSolver:  Solving for Uz, Initial residual = 0.002306949, Final residual = 7.8133321e-05, No Iterations 3
GAMG:  Solving for p, Initial residual = 0.020354322, Final residual = 0.00011601958, No Iterations 4
time step continuity errors : sum local = 9.3734619e-06, global = -1.1897525e-07, cumulative = 0.00016716625
ExecutionTime = 5.787397 s  ClockTime = 6 s

Time = 41s

smoothSolver:  Solving for Ux, Initial residual = 0.0019519165, Final residual = 6.6149453e-05, No Iterations 3
smoothSolver:  Solving for Uy, Initial residual = 0.016547517, Final residual = 0.00054604414, No Iterations 3
smoothSolver:  Solving for Uz, Initial residual = 0.0022888997, Final residual = 7.7907685e-05, No Iterations 3
GAMG:  Solving for p, Initial residual = 0.019715126, Final residual = 9.1060693e-05, No Iterations 4
time step continuity errors : sum local = 7.485474e-06, global = 2.6290426e-08, cumulative = 0.00016719254
ExecutionTime = 5.919017 s  ClockTime = 6 s

Time = 42s

smoothSolver:  Solving for Ux, Initial residual = 0.0019137195, Final residual = 6.5094987e-05, No Iterations 3
smoothSolver:  Solving for Uy, Initial residual = 0.01575459, Final residual = 0.00052506723, No Iterations 3
smoothSolver:  Solving for Uz, Initial residual = 0.0022371696, Final residual = 7.6192786e-05, No Iterations 3
GAMG:  Solving for p, Initial residual = 0.018737674, Final residual = 0.00010897692, No Iterations 4
time step continuity errors : sum local = 8.9604367e-06, global = 5.0999902e-08, cumulative = 0.00016724354
ExecutionTime = 6.051322 s  ClockTime = 6 s

Time = 43s

smoothSolver:  Solving for Ux, Initial residual = 0.0018831294, Final residual = 6.4037027e-05, No Iterations 3
smoothSolver:  Solving for Uy, Initial residual = 0.015305749, Final residual = 0.00051145962, No Iterations 3
smoothSolver:  Solving for Uz, Initial residual = 0.0021667157, Final residual = 7.3634307e-05, No Iterations 3
GAMG:  Solving for p, Initial residual = 0.018294587, Final residual = 0.00010843359, No Iterations 4
time step continuity errors : sum local = 8.8129037e-06, global = 6.4768459e-08, cumulative = 0.00016730831
ExecutionTime = 6.183241 s  ClockTime = 7 s

Time = 44s

smoothSolver:  Solving for Ux, Initial residual = 0.0018522867, Final residual = 6.2905929e-05, No Iterations 3
smoothSolver:  Solving for Uy, Initial residual = 0.014925371, Final residual = 0.00049883522, No Iterations 3
smoothSolver:  Solving for Uz, Initial residual = 0.0021025995, Final residual = 7.1319091e-05, No Iterations 3
GAMG:  Solving for p, Initial residual = 0.018560034, Final residual = 0.00010223386, No Iterations 4
time step continuity errors : sum local = 8.2050465e-06, global = 9.0717944e-08, cumulative = 0.00016739903
ExecutionTime = 6.314589 s  ClockTime = 7 s

Time = 45s

smoothSolver:  Solving for Ux, Initial residual = 0.0018209058, Final residual = 6.1857782e-05, No Iterations 3
smoothSolver:  Solving for Uy, Initial residual = 0.014497565, Final residual = 0.00048623062, No Iterations 3
smoothSolver:  Solving for Uz, Initial residual = 0.0020548156, Final residual = 6.9708546e-05, No Iterations 3
GAMG:  Solving for p, Initial residual = 0.018438155, Final residual = 0.00012983559, No Iterations 3
time step continuity errors : sum local = 1.0363545e-05, global = 3.3731066e-07, cumulative = 0.00016773634
ExecutionTime = 6.439423 s  ClockTime = 7 s

Time = 46s

smoothSolver:  Solving for Ux, Initial residual = 0.0017943123, Final residual = 6.105804e-05, No Iterations 3
smoothSolver:  Solving for Uy, Initial residual = 0.014148543, Final residual = 0.00047646874, No Iterations 3
smoothSolver:  Solving for Uz, Initial residual = 0.0020202392, Final residual = 6.8678457e-05, No Iterations 3
GAMG:  Solving for p, Initial residual = 0.017729427, Final residual = 0.00017648159, No Iterations 3
time step continuity errors : sum local = 1.4129615e-05, global = 2.1077017e-08, cumulative = 0.00016775741
ExecutionTime = 6.565033 s  ClockTime = 7 s

Time = 47s

smoothSolver:  Solving for Ux, Initial residual = 0.001772422, Final residual = 6.0398173e-05, No Iterations 3
smoothSolver:  Solving for Uy, Initial residual = 0.013886908, Final residual = 0.00046868817, No Iterations 3
smoothSolver:  Solving for Uz, Initial residual = 0.0019912461, Final residual = 6.7866563e-05, No Iterations 3
GAMG:  Solving for p, Initial residual = 0.01709465, Final residual = 8.0849895e-05, No Iterations 4
time step continuity errors : sum local = 6.5106889e-06, global = -1.9541195e-08, cumulative = 0.00016773787
ExecutionTime = 6.701666 s  ClockTime = 7 s

Time = 48s

smoothSolver:  Solving for Ux, Initial residual = 0.0017532446, Final residual = 5.9834804e-05, No Iterations 3
smoothSolver:  Solving for Uy, Initial residual = 0.013599312, Final residual = 0.00045962982, No Iterations 3
smoothSolver:  Solving for Uz, Initial residual = 0.0019648912, Final residual = 6.7151871e-05, No Iterations 3
GAMG:  Solving for p, Initial residual = 0.0166211, Final residual = 0.00011107449, No Iterations 3
time step continuity errors : sum local = 9.0089121e-06, global = 4.0559828e-08, cumulative = 0.00016777843
ExecutionTime = 6.826852 s  ClockTime = 7 s

Time = 49s

smoothSolver:  Solving for Ux, Initial residual = 0.001732659, Final residual = 5.921462e-05, No Iterations 3
smoothSolver:  Solving for Uy, Initial residual = 0.013260877, Final residual = 0.00044912219, No Iterations 3
smoothSolver:  Solving for Uz, Initial residual = 0.0019346519, Final residual = 6.6234401e-05, No Iterations 3
GAMG:  Solving for p, Initial residual = 0.01626834, Final residual = 0.00015010542, No Iterations 3
time step continuity errors : sum local = 1.2221753e-05, global = 1.7594859e-07, cumulative = 0.00016795438
ExecutionTime = 6.951766 s  ClockTime = 7 s

Time = 50s

smoothSolver:  Solving for Ux, Initial residual = 0.001715055, Final residual = 5.8678805e-05, No Iterations 3
smoothSolver:  Solving for Uy, Initial residual = 0.01295129, Final residual = 0.0004393618, No Iterations 3
smoothSolver:  Solving for Uz, Initial residual = 0.001902552, Final residual = 6.5210627e-05, No Iterations 3
GAMG:  Solving for p, Initial residual = 0.015962337, Final residual = 8.576231e-05, No Iterations 4
time step continuity errors : sum local = 6.9968939e-06, global = 7.0218362e-08, cumulative = 0.0001680246
ExecutionTime = 7.084929 s  ClockTime = 7 s

Time = 51s

smoothSolver:  Solving for Ux, Initial residual = 0.001700721, Final residual = 5.8210388e-05, No Iterations 3
smoothSolver:  Solving for Uy, Initial residual = 0.01269403, Final residual = 0.00043104744, No Iterations 3
smoothSolver:  Solving for Uz, Initial residual = 0.0018665034, Final residual = 6.3981298e-05, No Iterations 3
GAMG:  Solving for p, Initial residual = 0.015794797, Final residual = 8.514382e-05, No Iterations 4
time step continuity errors : sum local = 6.9357601e-06, global = 7.0258358e-08, cumulative = 0.00016809486
ExecutionTime = 7.217088 s  ClockTime = 8 s

Time = 52s

smoothSolver:  Solving for Ux, Initial residual = 0.0016859792, Final residual = 5.7707128e-05, No Iterations 3
smoothSolver:  Solving for Uy, Initial residual = 0.012459417, Final residual = 0.00042337885, No Iterations 3
smoothSolver:  Solving for Uz, Initial residual = 0.0018316532, Final residual = 6.2792531e-05, No Iterations 3
GAMG:  Solving for p, Initial residual = 0.015667164, Final residual = 8.2096717e-05, No Iterations 4
time step continuity errors : sum local = 6.6739824e-06, global = 7.9539461e-08, cumulative = 0.0001681744
ExecutionTime = 7.349595 s  ClockTime = 8 s

Time = 53s

smoothSolver:  Solving for Ux, Initial residual = 0.0016706213, Final residual = 5.7181584e-05, No Iterations 3
smoothSolver:  Solving for Uy, Initial residual = 0.012229181, Final residual = 0.00041605065, No Iterations 3
smoothSolver:  Solving for Uz, Initial residual = 0.0018002706, Final residual = 6.1753829e-05, No Iterations 3
GAMG:  Solving for p, Initial residual = 0.015471628, Final residual = 0.00011583307, No Iterations 3
time step continuity errors : sum local = 9.4117403e-06, global = 2.228067e-07, cumulative = 0.0001683972
ExecutionTime = 7.473991 s  ClockTime = 8 s

Time = 54s

smoothSolver:  Solving for Ux, Initial residual = 0.0016547203, Final residual = 5.665058e-05, No Iterations 3
smoothSolver:  Solving for Uy, Initial residual = 0.011996758, Final residual = 0.00040870795, No Iterations 3
smoothSolver:  Solving for Uz, Initial residual = 0.0017728635, Final residual = 6.0892579e-05, No Iterations 3
GAMG:  Solving for p, Initial residual = 0.01515554, Final residual = 0.0001067026, No Iterations 3
time step continuity errors : sum local = 8.6873256e-06, global = 2.4925708e-07, cumulative = 0.00016864646
ExecutionTime = 7.598791 s  ClockTime = 8 s

Time = 55s

smoothSolver:  Solving for Ux, Initial residual = 0.0016409228, Final residual = 5.6185579e-05, No Iterations 3
smoothSolver:  Solving for Uy, Initial residual = 0.011775788, Final residual = 0.00040157554, No Iterations 3
smoothSolver:  Solving for Uz, Initial residual = 0.0017467399, Final residual = 6.0069389e-05, No Iterations 3
GAMG:  Solving for p, Initial residual = 0.014865321, Final residual = 0.00011868435, No Iterations 3
time step continuity errors : sum local = 9.6861592e-06, global = 2.893392e-07, cumulative = 0.0001689358
ExecutionTime = 7.722383 s  ClockTime = 8 s

Time = 56s

smoothSolver:  Solving for Ux, Initial residual = 0.0016295669, Final residual = 5.5802405e-05, No Iterations 3
smoothSolver:  Solving for Uy, Initial residual = 0.011562475, Final residual = 0.00039462663, No Iterations 3
smoothSolver:  Solving for Uz, Initial residual = 0.0017212396, Final residual = 5.9256047e-05, No Iterations 3
GAMG:  Solving for p, Initial residual = 0.014626949, Final residual = 0.00013976489, No Iterations 3
time step continuity errors : sum local = 1.1432639e-05, global = 3.0977807e-07, cumulative = 0.00016924558
ExecutionTime = 7.846802 s  ClockTime = 8 s

Time = 57s

smoothSolver:  Solving for Ux, Initial residual = 0.0016201371, Final residual = 5.5484605e-05, No Iterations 3
smoothSolver:  Solving for Uy, Initial residual = 0.011359167, Final residual = 0.00038797392, No Iterations 3
smoothSolver:  Solving for Uz, Initial residual = 0.001695973, Final residual = 5.8437826e-05, No Iterations 3
GAMG:  Solving for p, Initial residual = 0.014432108, Final residual = 8.0999157e-05, No Iterations 4
time step continuity errors : sum local = 6.6377091e-06, global = 1.2463706e-07, cumulative = 0.00016937022
ExecutionTime = 7.980272 s  ClockTime = 8 s

Time = 58s

smoothSolver:  Solving for Ux, Initial residual = 0.0016128377, Final residual = 5.5228572e-05, No Iterations 3
smoothSolver:  Solving for Uy, Initial residual = 0.011170744, Final residual = 0.00038180395, No Iterations 3
smoothSolver:  Solving for Uz, Initial residual = 0.0016702954, Final residual = 5.7578717e-05, No Iterations 3
GAMG:  Solving for p, Initial residual = 0.014292506, Final residual = 7.5078491e-05, No Iterations 4
time step continuity errors : sum local = 6.156564e-06, global = 9.3285132e-08, cumulative = 0.0001694635
ExecutionTime = 8.112758 s  ClockTime = 9 s

Time = 59s

smoothSolver:  Solving for Ux, Initial residual = 0.001604154, Final residual = 5.49332e-05, No Iterations 3
smoothSolver:  Solving for Uy, Initial residual = 0.010982074, Final residual = 0.00037561678, No Iterations 3
smoothSolver:  Solving for Uz, Initial residual = 0.0016451082, Final residual = 5.6740719e-05, No Iterations 3
GAMG:  Solving for p, Initial residual = 0.014128456, Final residual = 0.00012745941, No Iterations 3
time step continuity errors : sum local = 1.0458511e-05, global = 1.5080483e-07, cumulative = 0.00016961431
ExecutionTime = 8.239423 s  ClockTime = 9 s

Time = 60s

smoothSolver:  Solving for Ux, Initial residual = 0.0015929702, Final residual = 5.4565037e-05, No Iterations 3
smoothSolver:  Solving for Uy, Initial residual = 0.010787492, Final residual = 0.00036930236, No Iterations 3
smoothSolver:  Solving for Uz, Initial residual = 0.0016214433, Final residual = 5.5975241e-05, No Iterations 3
GAMG:  Solving for p, Initial residual = 0.013906725, Final residual = 0.00012434933, No Iterations 3
time step continuity errors : sum local = 1.0218441e-05, global = 1.2126393e-07, cumulative = 0.00016973557
ExecutionTime = 8.36414 s  ClockTime = 9 s

Time = 61s

smoothSolver:  Solving for Ux, Initial residual = 0.0015826546, Final residual = 5.4224672e-05, No Iterations 3
smoothSolver:  Solving for Uy, Initial residual = 0.010602982, Final residual = 0.00036330526, No Iterations 3
smoothSolver:  Solving for Uz, Initial residual = 0.001598376, Final residual = 5.5226967e-05, No Iterations 3
GAMG:  Solving for p, Initial residual = 0.01370572, Final residual = 0.000128398, No Iterations 3
time step continuity errors : sum local = 1.0567099e-05, global = 1.2749203e-07, cumulative = 0.00016986306
ExecutionTime = 8.489563 s  ClockTime = 9 s

Time = 62s

smoothSolver:  Solving for Ux, Initial residual = 0.0015740023, Final residual = 5.3939719e-05, No Iterations 3
smoothSolver:  Solving for Uy, Initial residual = 0.010429866, Final residual = 0.00035766949, No Iterations 3
smoothSolver:  Solving for Uz, Initial residual = 0.0015757833, Final residual = 5.4489077e-05, No Iterations 3
GAMG:  Solving for p, Initial residual = 0.013526468, Final residual = 0.00013495344, No Iterations 3
time step continuity errors : sum local = 1.1122598e-05, global = 1.5868146e-07, cumulative = 0.00017002174
ExecutionTime = 8.616298 s  ClockTime = 9 s

Time = 63s

smoothSolver:  Solving for Ux, Initial residual = 0.0015669369, Final residual = 5.3708218e-05, No Iterations 3
smoothSolver:  Solving for Uy, Initial residual = 0.010265392, Final residual = 0.0003523134, No Iterations 3
smoothSolver:  Solving for Uz, Initial residual = 0.0015536853, Final residual = 5.3761959e-05, No Iterations 3
GAMG:  Solving for p, Initial residual = 0.013371708, Final residual = 7.3325378e-05, No Iterations 4
time step continuity errors : sum local = 6.0513795e-06, global = 8.6411688e-08, cumulative = 0.00017010815
ExecutionTime = 8.74782 s  ClockTime = 9 s

Time = 64s

smoothSolver:  Solving for Ux, Initial residual = 0.0015621589, Final residual = 5.3546657e-05, No Iterations 3
smoothSolver:  Solving for Uy, Initial residual = 0.010110337, Final residual = 0.00034724298, No Iterations 3
smoothSolver:  Solving for Uz, Initial residual = 0.0015317116, Final residual = 5.3023482e-05, No Iterations 3
GAMG:  Solving for p, Initial residual = 0.013248354, Final residual = 0.00012308853, No Iterations 3
time step continuity errors : sum local = 1.0165647e-05, global = 2.1469374e-07, cumulative = 0.00017032285
ExecutionTime = 8.871801 s  ClockTime = 9 s

Time = 65s

smoothSolver:  Solving for Ux, Initial residual = 0.0015549101, Final residual = 5.3306936e-05, No Iterations 3
smoothSolver:  Solving for Uy, Initial residual = 0.0099470838, Final residual = 0.00034194776, No Iterations 3
smoothSolver:  Solving for Uz, Initial residual = 0.0015111576, Final residual = 5.2353277e-05, No Iterations 3
GAMG:  Solving for p, Initial residual = 0.013077245, Final residual = 0.000120478, No Iterations 3
time step continuity errors : sum local = 9.9653011e-06, global = 2.3572419e-07, cumulative = 0.00017055857
ExecutionTime = 8.997011 s  ClockTime = 9 s

Time = 66s

smoothSolver:  Solving for Ux, Initial residual = 0.0015476431, Final residual = 5.3067225e-05, No Iterations 3
smoothSolver:  Solving for Uy, Initial residual = 0.0097855667, Final residual = 0.0003366956, No Iterations 3
smoothSolver:  Solving for Uz, Initial residual = 0.0014912041, Final residual = 5.1700475e-05, No Iterations 3
GAMG:  Solving for p, Initial residual = 0.01291471, Final residual = 0.00012258824, No Iterations 3
time step continuity errors : sum local = 1.0155421e-05, global = 2.439046e-07, cumulative = 0.00017080248
ExecutionTime = 9.122387 s  ClockTime = 10 s

Time = 67s

smoothSolver:  Solving for Ux, Initial residual = 0.0015407678, Final residual = 5.2839897e-05, No Iterations 3
smoothSolver:  Solving for Uy, Initial residual = 0.0096285014, Final residual = 0.00033153174, No Iterations 3
smoothSolver:  Solving for Uz, Initial residual = 0.0014716335, Final residual = 5.1057815e-05, No Iterations 3
GAMG:  Solving for p, Initial residual = 0.012768766, Final residual = 0.00012630854, No Iterations 3
time step continuity errors : sum local = 1.0478683e-05, global = 2.3371195e-07, cumulative = 0.00017103619
ExecutionTime = 9.248273 s  ClockTime = 10 s

Time = 68s

smoothSolver:  Solving for Ux, Initial residual = 0.0015344734, Final residual = 5.2631435e-05, No Iterations 3
smoothSolver:  Solving for Uy, Initial residual = 0.0094774808, Final residual = 0.00032650464, No Iterations 3
smoothSolver:  Solving for Uz, Initial residual = 0.0014523447, Final residual = 5.0422412e-05, No Iterations 3
GAMG:  Solving for p, Initial residual = 0.01263556, Final residual = 6.8688487e-05, No Iterations 4
time step continuity errors : sum local = 5.7059368e-06, global = 9.5014102e-08, cumulative = 0.0001711312
ExecutionTime = 9.380699 s  ClockTime = 10 s

Time = 69s

smoothSolver:  Solving for Ux, Initial residual = 0.0015299527, Final residual = 5.2475014e-05, No Iterations 3
smoothSolver:  Solving for Uy, Initial residual = 0.0093355368, Final residual = 0.00032173633, No Iterations 3
smoothSolver:  Solving for Uz, Initial residual = 0.0014329944, Final residual = 4.9771177e-05, No Iterations 3
GAMG:  Solving for p, Initial residual = 0.012534424, Final residual = 0.00011230126, No Iterations 3
time step continuity errors : sum local = 9.3359292e-06, global = 1.6957503e-07, cumulative = 0.00017130078
ExecutionTime = 9.504843 s  ClockTime = 10 s

Time = 70s

smoothSolver:  Solving for Ux, Initial residual = 0.001523251, Final residual = 5.2257099e-05, No Iterations 3
smoothSolver:  Solving for Uy, Initial residual = 0.0091904264, Final residual = 0.00031688203, No Iterations 3
smoothSolver:  Solving for Uz, Initial residual = 0.0014147146, Final residual = 4.9173387e-05, No Iterations 3
GAMG:  Solving for p, Initial residual = 0.012387454, Final residual = 0.00011081464, No Iterations 3
time step continuity errors : sum local = 9.2258786e-06, global = 1.4505758e-07, cumulative = 0.00017144584
ExecutionTime = 9.630082 s  ClockTime = 10 s

Time = 71s

smoothSolver:  Solving for Ux, Initial residual = 0.0015170743, Final residual = 5.205572e-05, No Iterations 3
smoothSolver:  Solving for Uy, Initial residual = 0.009049781, Final residual = 0.00031213279, No Iterations 3
smoothSolver:  Solving for Uz, Initial residual = 0.0013968572, Final residual = 4.8588774e-05, No Iterations 3
GAMG:  Solving for p, Initial residual = 0.01225003, Final residual = 0.00011412775, No Iterations 3
time step continuity errors : sum local = 9.5158009e-06, global = 1.4086111e-07, cumulative = 0.0001715867
ExecutionTime = 9.755163 s  ClockTime = 10 s

Time = 72s

smoothSolver:  Solving for Ux, Initial residual = 0.0015116755, Final residual = 5.1876684e-05, No Iterations 3
smoothSolver:  Solving for Uy, Initial residual = 0.0089128883, Final residual = 0.00030753526, No Iterations 3
smoothSolver:  Solving for Uz, Initial residual = 0.001379298, Final residual = 4.8011365e-05, No Iterations 3
GAMG:  Solving for p, Initial residual = 0.012120649, Final residual = 0.00011839147, No Iterations 3
time step continuity errors : sum local = 9.8851099e-06, global = 1.5233375e-07, cumulative = 0.00017173903
ExecutionTime = 9.879039 s  ClockTime = 10 s

Time = 73s

smoothSolver:  Solving for Ux, Initial residual = 0.0015069002, Final residual = 5.1714624e-05, No Iterations 3
smoothSolver:  Solving for Uy, Initial residual = 0.0087789325, Final residual = 0.00030300647, No Iterations 3
smoothSolver:  Solving for Uz, Initial residual = 0.0013620704, Final residual = 4.7438366e-05, No Iterations 3
GAMG:  Solving for p, Initial residual = 0.012005522, Final residual = 6.3920369e-05, No Iterations 4
time step continuity errors : sum local = 5.3439442e-06, global = 7.8307051e-08, cumulative = 0.00017181734
ExecutionTime = 10.012727 s  ClockTime = 10 s

Time = 74s

smoothSolver:  Solving for Ux, Initial residual = 0.0015036736, Final residual = 5.1598569e-05, No Iterations 3
smoothSolver:  Solving for Uy, Initial residual = 0.0086495039, Final residual = 0.00029858819, No Iterations 3
smoothSolver:  Solving for Uz, Initial residual = 0.0013449117, Final residual = 4.6854146e-05, No Iterations 3
GAMG:  Solving for p, Initial residual = 0.011920826, Final residual = 0.00010619362, No Iterations 3
time step continuity errors : sum local = 8.8854023e-06, global = 1.7236203e-07, cumulative = 0.0001719897
ExecutionTime = 10.137163 s  ClockTime = 11 s

Time = 75s

smoothSolver:  Solving for Ux, Initial residual = 0.001497869, Final residual = 5.1400323e-05, No Iterations 3
smoothSolver:  Solving for Uy, Initial residual = 0.0085166853, Final residual = 0.00029407967, No Iterations 3
smoothSolver:  Solving for Uz, Initial residual = 0.0013287316, Final residual = 4.6320426e-05, No Iterations 3
GAMG:  Solving for p, Initial residual = 0.011785742, Final residual = 0.00010443402, No Iterations 3
time step continuity errors : sum local = 8.7509083e-06, global = 1.8614706e-07, cumulative = 0.00017217585
ExecutionTime = 10.264652 s  ClockTime = 11 s

Time = 76s

smoothSolver:  Solving for Ux, Initial residual = 0.0014922003, Final residual = 5.1203871e-05, No Iterations 3
smoothSolver:  Solving for Uy, Initial residual = 0.0083871972, Final residual = 0.00028967859, No Iterations 3
smoothSolver:  Solving for Uz, Initial residual = 0.0013129354, Final residual = 4.5797411e-05, No Iterations 3
GAMG:  Solving for p, Initial residual = 0.01165153, Final residual = 0.00010734111, No Iterations 3
time step continuity errors : sum local = 9.0078324e-06, global = 1.9586271e-07, cumulative = 0.00017237171
ExecutionTime = 10.389543 s  ClockTime = 11 s

Time = 77s

smoothSolver:  Solving for Ux, Initial residual = 0.0014870956, Final residual = 5.1026776e-05, No Iterations 3
smoothSolver:  Solving for Uy, Initial residual = 0.0082614235, Final residual = 0.00028540987, No Iterations 3
smoothSolver:  Solving for Uz, Initial residual = 0.0012973817, Final residual = 4.5278708e-05, No Iterations 3
GAMG:  Solving for p, Initial residual = 0.01152844, Final residual = 0.00011177123, No Iterations 3
time step continuity errors : sum local = 9.3928736e-06, global = 1.9972e-07, cumulative = 0.00017257143
ExecutionTime = 10.515969 s  ClockTime = 11 s

Time = 78s

smoothSolver:  Solving for Ux, Initial residual = 0.0014826122, Final residual = 5.0867512e-05, No Iterations 3
smoothSolver:  Solving for Uy, Initial residual = 0.0081404623, Final residual = 0.00028125751, No Iterations 3
smoothSolver:  Solving for Uz, Initial residual = 0.0012820226, Final residual = 4.4761577e-05, No Iterations 3
GAMG:  Solving for p, Initial residual = 0.011418089, Final residual = 6.165944e-05, No Iterations 4
time step continuity errors : sum local = 5.188369e-06, global = 8.9458745e-08, cumulative = 0.00017266089
ExecutionTime = 10.647605 s  ClockTime = 11 s

Time = 79s

smoothSolver:  Solving for Ux, Initial residual = 0.0014796832, Final residual = 5.0754845e-05, No Iterations 3
smoothSolver:  Solving for Uy, Initial residual = 0.0080242881, Final residual = 0.00027723599, No Iterations 3
smoothSolver:  Solving for Uz, Initial residual = 0.0012666617, Final residual = 4.4232131e-05, No Iterations 3
GAMG:  Solving for p, Initial residual = 0.011334163, Final residual = 0.00010142176, No Iterations 3
time step continuity errors : sum local = 8.5412431e-06, global = 1.6257385e-07, cumulative = 0.00017282346
ExecutionTime = 10.772053 s  ClockTime = 11 s

Time = 80s

smoothSolver:  Solving for Ux, Initial residual = 0.0014743876, Final residual = 5.0575093e-05, No Iterations 3
smoothSolver:  Solving for Uy, Initial residual = 0.0079061815, Final residual = 0.00027320583, No Iterations 3
smoothSolver:  Solving for Uz, Initial residual = 0.001252075, Final residual = 4.3744535e-05, No Iterations 3
GAMG:  Solving for p, Initial residual = 0.01121035, Final residual = 9.9973931e-05, No Iterations 3
time step continuity errors : sum local = 8.4313632e-06, global = 1.4807338e-07, cumulative = 0.00017297154
ExecutionTime = 10.897524 s  ClockTime = 11 s

Time = 81s

smoothSolver:  Solving for Ux, Initial residual = 0.0014692484, Final residual = 5.04005e-05, No Iterations 3
smoothSolver:  Solving for Uy, Initial residual = 0.0077907153, Final residual = 0.00026927199, No Iterations 3
smoothSolver:  Solving for Uz, Initial residual = 0.001237809, Final residual = 4.326627e-05, No Iterations 3
GAMG:  Solving for p, Initial residual = 0.011097727, Final residual = 0.00010260021, No Iterations 3
time step continuity errors : sum local = 8.665466e-06, global = 1.462045e-07, cumulative = 0.00017311774
ExecutionTime = 11.022259 s  ClockTime = 11 s

Time = 82s

smoothSolver:  Solving for Ux, Initial residual = 0.0014646377, Final residual = 5.024629e-05, No Iterations 3
smoothSolver:  Solving for Uy, Initial residual = 0.0076788563, Final residual = 0.00026545965, No Iterations 3
smoothSolver:  Solving for Uz, Initial residual = 0.0012237677, Final residual = 4.2792655e-05, No Iterations 3
GAMG:  Solving for p, Initial residual = 0.010993936, Final residual = 0.0001063724, No Iterations 3
time step continuity errors : sum local = 8.996599e-06, global = 1.5366812e-07, cumulative = 0.00017327141
ExecutionTime = 11.146465 s  ClockTime = 12 s

Time = 83s

smoothSolver:  Solving for Ux, Initial residual = 0.0014605926, Final residual = 5.011363e-05, No Iterations 3
smoothSolver:  Solving for Uy, Initial residual = 0.007570651, Final residual = 0.00026176838, No Iterations 3
smoothSolver:  Solving for Uz, Initial residual = 0.0012099126, Final residual = 4.2323629e-05, No Iterations 3
GAMG:  Solving for p, Initial residual = 0.010900495, Final residual = 0.00010887363, No Iterations 3
time step continuity errors : sum local = 9.2201378e-06, global = 1.6477451e-07, cumulative = 0.00017343618
ExecutionTime = 11.272831 s  ClockTime = 12 s

Time = 84s

smoothSolver:  Solving for Ux, Initial residual = 0.0014568222, Final residual = 4.9993216e-05, No Iterations 3
smoothSolver:  Solving for Uy, Initial residual = 0.0074648303, Final residual = 0.00025814799, No Iterations 3
smoothSolver:  Solving for Uz, Initial residual = 0.0011962819, Final residual = 4.1861515e-05, No Iterations 3
GAMG:  Solving for p, Initial residual = 0.010810055, Final residual = 5.85536e-05, No Iterations 4
time step continuity errors : sum local = 4.9647896e-06, global = 8.2522909e-08, cumulative = 0.00017351871
ExecutionTime = 11.405084 s  ClockTime = 12 s

Time = 85s

smoothSolver:  Solving for Ux, Initial residual = 0.0014541374, Final residual = 4.9905755e-05, No Iterations 3
smoothSolver:  Solving for Uy, Initial residual = 0.0073607005, Final residual = 0.00025455524, No Iterations 3
smoothSolver:  Solving for Uz, Initial residual = 0.0011827398, Final residual = 4.1394636e-05, No Iterations 3
GAMG:  Solving for p, Initial residual = 0.010741057, Final residual = 9.4585733e-05, No Iterations 3
time step continuity errors : sum local = 8.0267791e-06, global = 1.600011e-07, cumulative = 0.00017367871
ExecutionTime = 11.529613 s  ClockTime = 12 s

Time = 86s

smoothSolver:  Solving for Ux, Initial residual = 0.001448893, Final residual = 4.9738261e-05, No Iterations 3
smoothSolver:  Solving for Uy, Initial residual = 0.0072553293, Final residual = 0.00025098087, No Iterations 3
smoothSolver:  Solving for Uz, Initial residual = 0.0011698523, Final residual = 4.0967365e-05, No Iterations 3
GAMG:  Solving for p, Initial residual = 0.010633059, Final residual = 9.2400068e-05, No Iterations 3
time step continuity errors : sum local = 7.8525017e-06, global = 1.6066479e-07, cumulative = 0.00017383937
ExecutionTime = 11.652897 s  ClockTime = 12 s

Time = 87s

smoothSolver:  Solving for Ux, Initial residual = 0.0014437351, Final residual = 4.9577919e-05, No Iterations 3
smoothSolver:  Solving for Uy, Initial residual = 0.007151618, Final residual = 0.00024743662, No Iterations 3
smoothSolver:  Solving for Uz, Initial residual = 0.0011571942, Final residual = 4.0546943e-05, No Iterations 3
GAMG:  Solving for p, Initial residual = 0.010533205, Final residual = 9.5020137e-05, No Iterations 3
time step continuity errors : sum local = 8.0869238e-06, global = 1.6673572e-07, cumulative = 0.00017400611
ExecutionTime = 11.778495 s  ClockTime = 12 s

Time = 88s

smoothSolver:  Solving for Ux, Initial residual = 0.001439131, Final residual = 4.9441633e-05, No Iterations 3
smoothSolver:  Solving for Uy, Initial residual = 0.0070504252, Final residual = 0.00024396587, No Iterations 3
smoothSolver:  Solving for Uz, Initial residual = 0.0011446749, Final residual = 4.0128072e-05, No Iterations 3
GAMG:  Solving for p, Initial residual = 0.010446511, Final residual = 9.9447558e-05, No Iterations 3
time step continuity errors : sum local = 8.4756214e-06, global = 1.7206446e-07, cumulative = 0.00017417817
ExecutionTime = 11.904015 s  ClockTime = 12 s

Time = 89s

smoothSolver:  Solving for Ux, Initial residual = 0.0014351428, Final residual = 4.9331814e-05, No Iterations 3
smoothSolver:  Solving for Uy, Initial residual = 0.0069514731, Final residual = 0.00024058196, No Iterations 3
smoothSolver:  Solving for Uz, Initial residual = 0.0011322824, Final residual = 3.9711235e-05, No Iterations 3
GAMG:  Solving for p, Initial residual = 0.010368624, Final residual = 0.00010262837, No Iterations 3
time step continuity errors : sum local = 8.7581047e-06, global = 1.774707e-07, cumulative = 0.00017435564
ExecutionTime = 12.031291 s  ClockTime = 12 s

Time = 90s

smoothSolver:  Solving for Ux, Initial residual = 0.0014314098, Final residual = 4.9234877e-05, No Iterations 3
smoothSolver:  Solving for Uy, Initial residual = 0.0068544341, Final residual = 0.00023726296, No Iterations 3
smoothSolver:  Solving for Uz, Initial residual = 0.0011200865, Final residual = 3.929977e-05, No Iterations 3
GAMG:  Solving for p, Initial residual = 0.010294161, Final residual = 5.5591883e-05, No Iterations 4
time step continuity errors : sum local = 4.7498339e-06, global = 8.0843062e-08, cumulative = 0.00017443649
ExecutionTime = 12.163536 s  ClockTime = 13 s

Time = 91s

smoothSolver:  Solving for Ux, Initial residual = 0.0014285522, Final residual = 4.9166053e-05, No Iterations 3
smoothSolver:  Solving for Uy, Initial residual = 0.0067584867, Final residual = 0.00023396883, No Iterations 3
smoothSolver:  Solving for Uz, Initial residual = 0.0011080198, Final residual = 3.8885419e-05, No Iterations 3
GAMG:  Solving for p, Initial residual = 0.010240976, Final residual = 8.9730002e-05, No Iterations 3
time step continuity errors : sum local = 7.6729447e-06, global = 1.4769066e-07, cumulative = 0.00017458418
ExecutionTime = 12.289673 s  ClockTime = 13 s

Time = 92s

smoothSolver:  Solving for Ux, Initial residual = 0.0014233152, Final residual = 4.9022907e-05, No Iterations 3
smoothSolver:  Solving for Uy, Initial residual = 0.0066633282, Final residual = 0.00023076137, No Iterations 3
smoothSolver:  Solving for Uz, Initial residual = 0.0010965268, Final residual = 3.8506228e-05, No Iterations 3
GAMG:  Solving for p, Initial residual = 0.01014599, Final residual = 8.7352579e-05, No Iterations 3
time step continuity errors : sum local = 7.4799239e-06, global = 1.3590876e-07, cumulative = 0.00017472008
ExecutionTime = 12.419798 s  ClockTime = 13 s

Time = 93s

smoothSolver:  Solving for Ux, Initial residual = 0.0014181367, Final residual = 4.8878391e-05, No Iterations 3
smoothSolver:  Solving for Uy, Initial residual = 0.0065699938, Final residual = 0.00022759398, No Iterations 3
smoothSolver:  Solving for Uz, Initial residual = 0.0010852451, Final residual = 3.8132578e-05, No Iterations 3
GAMG:  Solving for p, Initial residual = 0.010054053, Final residual = 8.9564041e-05, No Iterations 3
time step continuity errors : sum local = 7.6801689e-06, global = 1.3435049e-07, cumulative = 0.00017485444
ExecutionTime = 12.552736 s  ClockTime = 13 s

Time = 94s

smoothSolver:  Solving for Ux, Initial residual = 0.0014134832, Final residual = 4.8752433e-05, No Iterations 3
smoothSolver:  Solving for Uy, Initial residual = 0.0064795694, Final residual = 0.00022450267, No Iterations 3
smoothSolver:  Solving for Uz, Initial residual = 0.0010740448, Final residual = 3.7760208e-05, No Iterations 3
GAMG:  Solving for p, Initial residual = 0.0099745557, Final residual = 9.3489013e-05, No Iterations 3
time step continuity errors : sum local = 8.0278837e-06, global = 1.4001408e-07, cumulative = 0.00017499445
ExecutionTime = 12.680078 s  ClockTime = 13 s

Time = 95s

smoothSolver:  Solving for Ux, Initial residual = 0.0014094565, Final residual = 4.8646212e-05, No Iterations 3
smoothSolver:  Solving for Uy, Initial residual = 0.0063924703, Final residual = 0.00022148595, No Iterations 3
smoothSolver:  Solving for Uz, Initial residual = 0.0010629272, Final residual = 3.7387455e-05, No Iterations 3
GAMG:  Solving for p, Initial residual = 0.009902659, Final residual = 9.6375831e-05, No Iterations 3
time step continuity errors : sum local = 8.2866599e-06, global = 1.4818468e-07, cumulative = 0.00017514263
ExecutionTime = 12.80656 s  ClockTime = 13 s

Time = 96s

smoothSolver:  Solving for Ux, Initial residual = 0.0014057415, Final residual = 4.8548203e-05, No Iterations 3
smoothSolver:  Solving for Uy, Initial residual = 0.0063072623, Final residual = 0.00021851719, No Iterations 3
smoothSolver:  Solving for Uz, Initial residual = 0.0010519716, Final residual = 3.701783e-05, No Iterations 3
GAMG:  Solving for p, Initial residual = 0.0098319879, Final residual = 9.6796482e-05, No Iterations 3
time step continuity errors : sum local = 8.3331991e-06, global = 1.6120732e-07, cumulative = 0.00017530384
ExecutionTime = 12.930168 s  ClockTime = 13 s

Time = 97s

smoothSolver:  Solving for Ux, Initial residual = 0.001401893, Final residual = 4.8446869e-05, No Iterations 3
smoothSolver:  Solving for Uy, Initial residual = 0.0062235438, Final residual = 0.00021559173, No Iterations 3
smoothSolver:  Solving for Uz, Initial residual = 0.0010412363, Final residual = 3.6655517e-05, No Iterations 3
GAMG:  Solving for p, Initial residual = 0.0097638385, Final residual = 9.5085569e-05, No Iterations 3
time step continuity errors : sum local = 8.1957782e-06, global = 1.6059908e-07, cumulative = 0.00017546444
ExecutionTime = 13.054607 s  ClockTime = 14 s

Time = 98s

smoothSolver:  Solving for Ux, Initial residual = 0.0013976957, Final residual = 4.8334173e-05, No Iterations 3
smoothSolver:  Solving for Uy, Initial residual = 0.0061417592, Final residual = 0.0002127167, No Iterations 3
smoothSolver:  Solving for Uz, Initial residual = 0.001030733, Final residual = 3.6302493e-05, No Iterations 3
GAMG:  Solving for p, Initial residual = 0.0096911755, Final residual = 9.2036499e-05, No Iterations 3
time step continuity errors : sum local = 7.942412e-06, global = 1.571928e-07, cumulative = 0.00017562163
ExecutionTime = 13.17846 s  ClockTime = 14 s

Time = 99s

smoothSolver:  Solving for Ux, Initial residual = 0.0013931907, Final residual = 4.821095e-05, No Iterations 3
smoothSolver:  Solving for Uy, Initial residual = 0.0060614932, Final residual = 0.00020990475, No Iterations 3
smoothSolver:  Solving for Uz, Initial residual = 0.0010204554, Final residual = 3.5957574e-05, No Iterations 3
GAMG:  Solving for p, Initial residual = 0.0096139275, Final residual = 8.9104261e-05, No Iterations 3
time step continuity errors : sum local = 7.698718e-06, global = 1.5150294e-07, cumulative = 0.00017577314
ExecutionTime = 13.302978 s  ClockTime = 14 s

Time = 100s

smoothSolver:  Solving for Ux, Initial residual = 0.0013885335, Final residual = 4.8084913e-05, No Iterations 3
smoothSolver:  Solving for Uy, Initial residual = 0.0059828361, Final residual = 0.00020715422, No Iterations 3
smoothSolver:  Solving for Uz, Initial residual = 0.001010363, Final residual = 3.5619413e-05, No Iterations 3
GAMG:  Solving for p, Initial residual = 0.0095347991, Final residual = 8.7252162e-05, No Iterations 3
time step continuity errors : sum local = 7.5480983e-06, global = 1.4463579e-07, cumulative = 0.00017591777
ExecutionTime = 13.425947 s  ClockTime = 14 s

Time = 101s

smoothSolver:  Solving for Ux, Initial residual = 0.0013839095, Final residual = 4.7963973e-05, No Iterations 3
smoothSolver:  Solving for Uy, Initial residual = 0.0059051567, Final residual = 0.00020443282, No Iterations 3
smoothSolver:  Solving for Uz, Initial residual = 0.0010003965, Final residual = 3.5285652e-05, No Iterations 3
GAMG:  Solving for p, Initial residual = 0.0094602862, Final residual = 8.6510982e-05, No Iterations 3
time step continuity errors : sum local = 7.4935388e-06, global = 1.3892338e-07, cumulative = 0.0001760567
ExecutionTime = 13.54984 s  ClockTime = 14 s

Time = 102s

smoothSolver:  Solving for Ux, Initial residual = 0.0013794275, Final residual = 4.7851241e-05, No Iterations 3
smoothSolver:  Solving for Uy, Initial residual = 0.0058288278, Final residual = 0.00020174389, No Iterations 3
smoothSolver:  Solving for Uz, Initial residual = 0.00099051744, Final residual = 3.4955434e-05, No Iterations 3
GAMG:  Solving for p, Initial residual = 0.0093939347, Final residual = 8.6344553e-05, No Iterations 3
time step continuity errors : sum local = 7.4887116e-06, global = 1.3516346e-07, cumulative = 0.00017619186
ExecutionTime = 13.674075 s  ClockTime = 14 s

Time = 103s

smoothSolver:  Solving for Ux, Initial residual = 0.0013750686, Final residual = 4.7744491e-05, No Iterations 3
smoothSolver:  Solving for Uy, Initial residual = 0.0057538579, Final residual = 0.0001990802, No Iterations 3
smoothSolver:  Solving for Uz, Initial residual = 0.00098074406, Final residual = 3.4629806e-05, No Iterations 3
GAMG:  Solving for p, Initial residual = 0.0093275151, Final residual = 8.6249383e-05, No Iterations 3
time step continuity errors : sum local = 7.4898918e-06, global = 1.3373697e-07, cumulative = 0.0001763256
ExecutionTime = 13.79849 s  ClockTime = 14 s

Time = 104s

smoothSolver:  Solving for Ux, Initial residual = 0.0013707026, Final residual = 4.7636924e-05, No Iterations 3
smoothSolver:  Solving for Uy, Initial residual = 0.0056797861, Final residual = 0.00019644126, No Iterations 3
smoothSolver:  Solving for Uz, Initial residual = 0.00097111313, Final residual = 3.4308672e-05, No Iterations 3
GAMG:  Solving for p, Initial residual = 0.0092653944, Final residual = 8.5895411e-05, No Iterations 3
time step continuity errors : sum local = 7.4683803e-06, global = 1.3388859e-07, cumulative = 0.00017645948
ExecutionTime = 13.923666 s  ClockTime = 14 s

Time = 105s

smoothSolver:  Solving for Ux, Initial residual = 0.0013662809, Final residual = 4.7524703e-05, No Iterations 3
smoothSolver:  Solving for Uy, Initial residual = 0.0056070527, Final residual = 0.00019385067, No Iterations 3
smoothSolver:  Solving for Uz, Initial residual = 0.0009616437, Final residual = 3.3993611e-05, No Iterations 3
GAMG:  Solving for p, Initial residual = 0.0092052149, Final residual = 8.5172469e-05, No Iterations 3
time step continuity errors : sum local = 7.4145066e-06, global = 1.3444515e-07, cumulative = 0.00017659393
ExecutionTime = 14.04968 s  ClockTime = 15 s

Time = 106s

smoothSolver:  Solving for Ux, Initial residual = 0.0013617666, Final residual = 4.740551e-05, No Iterations 3
smoothSolver:  Solving for Uy, Initial residual = 0.0055360604, Final residual = 0.00019133332, No Iterations 3
smoothSolver:  Solving for Uz, Initial residual = 0.00095235077, Final residual = 3.3684822e-05, No Iterations 3
GAMG:  Solving for p, Initial residual = 0.0091459888, Final residual = 8.4234905e-05, No Iterations 3
time step continuity errors : sum local = 7.3417198e-06, global = 1.343872e-07, cumulative = 0.00017672832
ExecutionTime = 14.172904 s  ClockTime = 15 s

Time = 107s

smoothSolver:  Solving for Ux, Initial residual = 0.0013571809, Final residual = 4.7282483e-05, No Iterations 3
smoothSolver:  Solving for Uy, Initial residual = 0.0054672568, Final residual = 0.00018890546, No Iterations 3
smoothSolver:  Solving for Uz, Initial residual = 0.00094325502, Final residual = 3.3382516e-05, No Iterations 3
GAMG:  Solving for p, Initial residual = 0.009087188, Final residual = 8.3265432e-05, No Iterations 3
time step continuity errors : sum local = 7.2659097e-06, global = 1.3311617e-07, cumulative = 0.00017686143
ExecutionTime = 14.297376 s  ClockTime = 15 s

Time = 108s

smoothSolver:  Solving for Ux, Initial residual = 0.0013525231, Final residual = 4.7157684e-05, No Iterations 3
smoothSolver:  Solving for Uy, Initial residual = 0.0054006593, Final residual = 0.0001865627, No Iterations 3
smoothSolver:  Solving for Uz, Initial residual = 0.00093430526, Final residual = 3.3084902e-05, No Iterations 3
GAMG:  Solving for p, Initial residual = 0.0090301664, Final residual = 8.241045e-05, No Iterations 3
time step continuity errors : sum local = 7.1998753e-06, global = 1.303375e-07, cumulative = 0.00017699177
ExecutionTime = 14.421467 s  ClockTime = 15 s

Time = 109s

smoothSolver:  Solving for Ux, Initial residual = 0.0013478939, Final residual = 4.7032898e-05, No Iterations 3
smoothSolver:  Solving for Uy, Initial residual = 0.0053361056, Final residual = 0.0001842921, No Iterations 3
smoothSolver:  Solving for Uz, Initial residual = 0.00092548541, Final residual = 3.2790343e-05, No Iterations 3
GAMG:  Solving for p, Initial residual = 0.0089695143, Final residual = 8.1684974e-05, No Iterations 3
time step continuity errors : sum local = 7.144956e-06, global = 1.2658952e-07, cumulative = 0.00017711836
ExecutionTime = 14.545632 s  ClockTime = 15 s

Time = 110s

smoothSolver:  Solving for Ux, Initial residual = 0.0013432926, Final residual = 4.6908241e-05, No Iterations 3
smoothSolver:  Solving for Uy, Initial residual = 0.0052726994, Final residual = 0.00018207289, No Iterations 3
smoothSolver:  Solving for Uz, Initial residual = 0.00091675027, Final residual = 3.2498787e-05, No Iterations 3
GAMG:  Solving for p, Initial residual = 0.0089105829, Final residual = 8.1100416e-05, No Iterations 3
time step continuity errors : sum local = 7.102215e-06, global = 1.2256957e-07, cumulative = 0.00017724093
ExecutionTime = 14.669385 s  ClockTime = 15 s

Time = 111s

smoothSolver:  Solving for Ux, Initial residual = 0.001338668, Final residual = 4.6782875e-05, No Iterations 3
smoothSolver:  Solving for Uy, Initial residual = 0.0052104153, Final residual = 0.00017989244, No Iterations 3
smoothSolver:  Solving for Uz, Initial residual = 0.00090810973, Final residual = 3.2210698e-05, No Iterations 3
GAMG:  Solving for p, Initial residual = 0.0088473531, Final residual = 8.0533224e-05, No Iterations 3
time step continuity errors : sum local = 7.0608212e-06, global = 1.1889791e-07, cumulative = 0.00017735983
ExecutionTime = 14.793908 s  ClockTime = 15 s

Time = 112s

smoothSolver:  Solving for Ux, Initial residual = 0.0013340091, Final residual = 4.6655069e-05, No Iterations 3
smoothSolver:  Solving for Uy, Initial residual = 0.0051497952, Final residual = 0.00017774819, No Iterations 3
smoothSolver:  Solving for Uz, Initial residual = 0.00089956961, Final residual = 3.1926617e-05, No Iterations 3
GAMG:  Solving for p, Initial residual = 0.0087803185, Final residual = 7.9845932e-05, No Iterations 3
time step continuity errors : sum local = 7.0086704e-06, global = 1.1588805e-07, cumulative = 0.00017747572
ExecutionTime = 14.919028 s  ClockTime = 15 s

Time = 113s

smoothSolver:  Solving for Ux, Initial residual = 0.0013292962, Final residual = 4.6524632e-05, No Iterations 3
smoothSolver:  Solving for Uy, Initial residual = 0.0050903183, Final residual = 0.00017564584, No Iterations 3
smoothSolver:  Solving for Uz, Initial residual = 0.00089116131, Final residual = 3.1646222e-05, No Iterations 3
GAMG:  Solving for p, Initial residual = 0.0087172405, Final residual = 7.9003899e-05, No Iterations 3
time step continuity errors : sum local = 6.9426902e-06, global = 1.1385445e-07, cumulative = 0.00017758957
ExecutionTime = 15.044087 s  ClockTime = 16 s

Time = 114s

smoothSolver:  Solving for Ux, Initial residual = 0.0013245113, Final residual = 4.6392096e-05, No Iterations 3
smoothSolver:  Solving for Uy, Initial residual = 0.00503129, Final residual = 0.00017358647, No Iterations 3
smoothSolver:  Solving for Uz, Initial residual = 0.00088287628, Final residual = 3.1369959e-05, No Iterations 3
GAMG:  Solving for p, Initial residual = 0.0086601313, Final residual = 7.8089339e-05, No Iterations 3
time step continuity errors : sum local = 6.8700403e-06, global = 1.126577e-07, cumulative = 0.00017770223
ExecutionTime = 15.169145 s  ClockTime = 16 s

Time = 115s

smoothSolver:  Solving for Ux, Initial residual = 0.0013196615, Final residual = 4.6255976e-05, No Iterations 3
smoothSolver:  Solving for Uy, Initial residual = 0.0049739251, Final residual = 0.00017158122, No Iterations 3
smoothSolver:  Solving for Uz, Initial residual = 0.00087472454, Final residual = 3.1097353e-05, No Iterations 3
GAMG:  Solving for p, Initial residual = 0.0086036921, Final residual = 7.717002e-05, No Iterations 3
time step continuity errors : sum local = 6.7966996e-06, global = 1.11988e-07, cumulative = 0.00017781422
ExecutionTime = 15.29418 s  ClockTime = 16 s

Time = 116s

smoothSolver:  Solving for Ux, Initial residual = 0.0013147397, Final residual = 4.6116755e-05, No Iterations 3
smoothSolver:  Solving for Uy, Initial residual = 0.0049184684, Final residual = 0.00016964619, No Iterations 3
smoothSolver:  Solving for Uz, Initial residual = 0.00086670639, Final residual = 3.082842e-05, No Iterations 3
GAMG:  Solving for p, Initial residual = 0.0085489536, Final residual = 7.6211691e-05, No Iterations 3
time step continuity errors : sum local = 6.7196866e-06, global = 1.1414023e-07, cumulative = 0.00017792836
ExecutionTime = 15.419975 s  ClockTime = 16 s

Time = 117s

smoothSolver:  Solving for Ux, Initial residual = 0.001309821, Final residual = 4.5976746e-05, No Iterations 3
smoothSolver:  Solving for Uy, Initial residual = 0.0048651296, Final residual = 0.00016778282, No Iterations 3
smoothSolver:  Solving for Uz, Initial residual = 0.00085880989, Final residual = 3.0563867e-05, No Iterations 3
GAMG:  Solving for p, Initial residual = 0.008494508, Final residual = 7.5280464e-05, No Iterations 3
time step continuity errors : sum local = 6.6448689e-06, global = 1.138845e-07, cumulative = 0.00017804224
ExecutionTime = 15.544665 s  ClockTime = 16 s

Time = 118s

smoothSolver:  Solving for Ux, Initial residual = 0.0013049085, Final residual = 4.5835254e-05, No Iterations 3
smoothSolver:  Solving for Uy, Initial residual = 0.0048134372, Final residual = 0.00016599642, No Iterations 3
smoothSolver:  Solving for Uz, Initial residual = 0.0008510343, Final residual = 3.0303155e-05, No Iterations 3
GAMG:  Solving for p, Initial residual = 0.0084377385, Final residual = 7.439804e-05, No Iterations 3
time step continuity errors : sum local = 6.5741844e-06, global = 1.1452267e-07, cumulative = 0.00017815676
ExecutionTime = 15.669714 s  ClockTime = 16 s

Time = 119s

smoothSolver:  Solving for Ux, Initial residual = 0.0013000107, Final residual = 4.5694192e-05, No Iterations 3
smoothSolver:  Solving for Uy, Initial residual = 0.0047638532, Final residual = 0.00016428188, No Iterations 3
smoothSolver:  Solving for Uz, Initial residual = 0.00084338099, Final residual = 3.0046351e-05, No Iterations 3
GAMG:  Solving for p, Initial residual = 0.0083791919, Final residual = 7.3607204e-05, No Iterations 3
time step continuity errors : sum local = 6.5114516e-06, global = 1.1323395e-07, cumulative = 0.00017827
ExecutionTime = 15.794482 s  ClockTime = 16 s

Time = 120s

smoothSolver:  Solving for Ux, Initial residual = 0.001295143, Final residual = 4.5552062e-05, No Iterations 3
smoothSolver:  Solving for Uy, Initial residual = 0.0047162595, Final residual = 0.00016264431, No Iterations 3
smoothSolver:  Solving for Uz, Initial residual = 0.00083583825, Final residual = 2.979327e-05, No Iterations 3
GAMG:  Solving for p, Initial residual = 0.0083228741, Final residual = 7.2894871e-05, No Iterations 3
time step continuity errors : sum local = 6.4555257e-06, global = 1.1317439e-07, cumulative = 0.00017838317
ExecutionTime = 15.920416 s  ClockTime = 16 s

Time = 121s

smoothSolver:  Solving for Ux, Initial residual = 0.0012902843, Final residual = 4.5411522e-05, No Iterations 3
smoothSolver:  Solving for Uy, Initial residual = 0.0046706515, Final residual = 0.00016105787, No Iterations 3
smoothSolver:  Solving for Uz, Initial residual = 0.00082837851, Final residual = 2.9543261e-05, No Iterations 3
GAMG:  Solving for p, Initial residual = 0.0082689698, Final residual = 7.2335712e-05, No Iterations 3
time step continuity errors : sum local = 6.4130089e-06, global = 1.1344576e-07, cumulative = 0.00017849662
ExecutionTime = 16.045907 s  ClockTime = 17 s

Time = 122s

smoothSolver:  Solving for Ux, Initial residual = 0.0012854092, Final residual = 4.5267468e-05, No Iterations 3
smoothSolver:  Solving for Uy, Initial residual = 0.0046259133, Final residual = 0.00015949899, No Iterations 3
smoothSolver:  Solving for Uz, Initial residual = 0.00082098457, Final residual = 2.9295552e-05, No Iterations 3
GAMG:  Solving for p, Initial residual = 0.0082175813, Final residual = 7.1813122e-05, No Iterations 3
time step continuity errors : sum local = 6.3735644e-06, global = 1.128405e-07, cumulative = 0.00017860946
ExecutionTime = 16.170674 s  ClockTime = 17 s

Time = 123s

smoothSolver:  Solving for Ux, Initial residual = 0.0012804649, Final residual = 4.5121396e-05, No Iterations 3
smoothSolver:  Solving for Uy, Initial residual = 0.0045818771, Final residual = 0.0001579646, No Iterations 3
smoothSolver:  Solving for Uz, Initial residual = 0.00081365742, Final residual = 2.9050368e-05, No Iterations 3
GAMG:  Solving for p, Initial residual = 0.0081694083, Final residual = 7.1253831e-05, No Iterations 3
time step continuity errors : sum local = 6.330673e-06, global = 1.1363606e-07, cumulative = 0.00017872309
ExecutionTime = 16.296779 s  ClockTime = 17 s

Time = 124s

smoothSolver:  Solving for Ux, Initial residual = 0.0012755138, Final residual = 4.4972373e-05, No Iterations 3
smoothSolver:  Solving for Uy, Initial residual = 0.0045385619, Final residual = 0.00015645794, No Iterations 3
smoothSolver:  Solving for Uz, Initial residual = 0.00080641545, Final residual = 2.8807117e-05, No Iterations 3
GAMG:  Solving for p, Initial residual = 0.0081250393, Final residual = 7.0658204e-05, No Iterations 3
time step continuity errors : sum local = 6.2843803e-06, global = 1.1344943e-07, cumulative = 0.00017883654
ExecutionTime = 16.421904 s  ClockTime = 17 s

Time = 125s

smoothSolver:  Solving for Ux, Initial residual = 0.0012705335, Final residual = 4.4821977e-05, No Iterations 3
smoothSolver:  Solving for Uy, Initial residual = 0.0044966058, Final residual = 0.00015498964, No Iterations 3
smoothSolver:  Solving for Uz, Initial residual = 0.00079926444, Final residual = 2.8566764e-05, No Iterations 3
GAMG:  Solving for p, Initial residual = 0.008081815, Final residual = 7.0033342e-05, No Iterations 3
time step continuity errors : sum local = 6.2353137e-06, global = 1.1272699e-07, cumulative = 0.00017894927
ExecutionTime = 16.546646 s  ClockTime = 17 s

Time = 126s

smoothSolver:  Solving for Ux, Initial residual = 0.0012655616, Final residual = 4.4670523e-05, No Iterations 3
smoothSolver:  Solving for Uy, Initial residual = 0.0044564705, Final residual = 0.00015358472, No Iterations 3
smoothSolver:  Solving for Uz, Initial residual = 0.00079222232, Final residual = 2.8329297e-05, No Iterations 3
GAMG:  Solving for p, Initial residual = 0.0080372021, Final residual = 6.940813e-05, No Iterations 3
time step continuity errors : sum local = 6.1860686e-06, global = 1.1184222e-07, cumulative = 0.00017906111
ExecutionTime = 16.672331 s  ClockTime = 17 s

Time = 127s

smoothSolver:  Solving for Ux, Initial residual = 0.0012606423, Final residual = 4.4512145e-05, No Iterations 3
smoothSolver:  Solving for Uy, Initial residual = 0.0044182877, Final residual = 0.00015223491, No Iterations 3
smoothSolver:  Solving for Uz, Initial residual = 0.00078528993, Final residual = 2.8094676e-05, No Iterations 3
GAMG:  Solving for p, Initial residual = 0.0079933284, Final residual = 6.8760358e-05, No Iterations 3
time step continuity errors : sum local = 6.1346708e-06, global = 1.1128631e-07, cumulative = 0.0001791724
ExecutionTime = 16.796522 s  ClockTime = 17 s

Time = 128s

smoothSolver:  Solving for Ux, Initial residual = 0.0012557227, Final residual = 4.4352521e-05, No Iterations 3
smoothSolver:  Solving for Uy, Initial residual = 0.0043814151, Final residual = 0.00015091441, No Iterations 3
smoothSolver:  Solving for Uz, Initial residual = 0.00077844463, Final residual = 2.7862626e-05, No Iterations 3
GAMG:  Solving for p, Initial residual = 0.0079471166, Final residual = 6.8122779e-05, No Iterations 3
time step continuity errors : sum local = 6.0840565e-06, global = 1.1073276e-07, cumulative = 0.00017928313
ExecutionTime = 16.921726 s  ClockTime = 17 s

Time = 129s

smoothSolver:  Solving for Ux, Initial residual = 0.0012507602, Final residual = 4.4190079e-05, No Iterations 3
smoothSolver:  Solving for Uy, Initial residual = 0.0043449766, Final residual = 0.0001496119, No Iterations 3
smoothSolver:  Solving for Uz, Initial residual = 0.00077167086, Final residual = 2.7632133e-05, No Iterations 3
GAMG:  Solving for p, Initial residual = 0.0079001861, Final residual = 6.7511774e-05, No Iterations 3
time step continuity errors : sum local = 6.0356693e-06, global = 1.1030191e-07, cumulative = 0.00017939343
ExecutionTime = 17.047035 s  ClockTime = 18 s

Time = 130s

smoothSolver:  Solving for Ux, Initial residual = 0.0012457731, Final residual = 4.4026726e-05, No Iterations 3
smoothSolver:  Solving for Uy, Initial residual = 0.0043088007, Final residual = 0.00014833326, No Iterations 3
smoothSolver:  Solving for Uz, Initial residual = 0.00076498955, Final residual = 2.7404135e-05, No Iterations 3
[...]
GAMG:  Solving for p, Initial residual = 1.5994951e-05, Final residual = 1.5597147e-07, No Iterations 2
time step continuity errors : sum local = 1.605577e-08, global = -1.7392137e-09, cumulative = 0.00019220899
ExecutionTime = 109.88327 s  ClockTime = 112 s

Time = 876s

smoothSolver:  Solving for Ux, Initial residual = 3.3122511e-06, Final residual = 1.2279288e-07, No Iterations 3
smoothSolver:  Solving for Uy, Initial residual = 9.1799529e-06, Final residual = 3.3630908e-07, No Iterations 3
smoothSolver:  Solving for Uz, Initial residual = 8.1572446e-07, Final residual = 3.0554822e-08, No Iterations 3
GAMG:  Solving for p, Initial residual = 1.5769428e-05, Final residual = 6.8136883e-08, No Iterations 3
time step continuity errors : sum local = 7.0140295e-09, global = -6.690421e-10, cumulative = 0.00019220832
ExecutionTime = 110.0094 s  ClockTime = 112 s

Time = 877s

smoothSolver:  Solving for Ux, Initial residual = 3.2602682e-06, Final residual = 1.2086214e-07, No Iterations 3
smoothSolver:  Solving for Uy, Initial residual = 9.096484e-06, Final residual = 3.3331469e-07, No Iterations 3
smoothSolver:  Solving for Uz, Initial residual = 8.0339025e-07, Final residual = 3.0099639e-08, No Iterations 3
GAMG:  Solving for p, Initial residual = 1.555669e-05, Final residual = 1.4761791e-07, No Iterations 2
time step continuity errors : sum local = 1.5195811e-08, global = -1.648434e-09, cumulative = 0.00019220667
ExecutionTime = 110.1266 s  ClockTime = 112 s

Time = 878s

smoothSolver:  Solving for Ux, Initial residual = 3.2069374e-06, Final residual = 1.1891079e-07, No Iterations 3
smoothSolver:  Solving for Uy, Initial residual = 9.0027036e-06, Final residual = 3.2994934e-07, No Iterations 3
smoothSolver:  Solving for Uz, Initial residual = 7.9040785e-07, Final residual = 2.9624085e-08, No Iterations 3
GAMG:  Solving for p, Initial residual = 1.5331038e-05, Final residual = 1.5027246e-07, No Iterations 2
time step continuity errors : sum local = 1.5469046e-08, global = -1.6939361e-09, cumulative = 0.00019220498
ExecutionTime = 110.24533 s  ClockTime = 112 s

Time = 879s

smoothSolver:  Solving for Ux, Initial residual = 3.1542202e-06, Final residual = 1.1697462e-07, No Iterations 3
smoothSolver:  Solving for Uy, Initial residual = 8.910561e-06, Final residual = 3.2665465e-07, No Iterations 3
smoothSolver:  Solving for Uz, Initial residual = 7.7763332e-07, Final residual = 2.915477e-08, No Iterations 3
GAMG:  Solving for p, Initial residual = 1.5111315e-05, Final residual = 6.5571577e-08, No Iterations 3
time step continuity errors : sum local = 6.7499275e-09, global = -6.5745608e-10, cumulative = 0.00019220432
ExecutionTime = 110.37121 s  ClockTime = 112 s

Time = 880s

smoothSolver:  Solving for Ux, Initial residual = 3.1037591e-06, Final residual = 1.1509296e-07, No Iterations 3
smoothSolver:  Solving for Uy, Initial residual = 8.8284615e-06, Final residual = 3.2372283e-07, No Iterations 3
smoothSolver:  Solving for Uz, Initial residual = 7.6562369e-07, Final residual = 2.8708898e-08, No Iterations 3
GAMG:  Solving for p, Initial residual = 1.4904565e-05, Final residual = 1.4228364e-07, No Iterations 2
time step continuity errors : sum local = 1.4646637e-08, global = -1.6008035e-09, cumulative = 0.00019220272
ExecutionTime = 110.49045 s  ClockTime = 112 s

Time = 881s

smoothSolver:  Solving for Ux, Initial residual = 3.0521194e-06, Final residual = 1.1319809e-07, No Iterations 3
smoothSolver:  Solving for Uy, Initial residual = 8.7359602e-06, Final residual = 3.2041915e-07, No Iterations 3
smoothSolver:  Solving for Uz, Initial residual = 7.5299951e-07, Final residual = 2.8243281e-08, No Iterations 3
GAMG:  Solving for p, Initial residual = 1.4685454e-05, Final residual = 1.4480226e-07, No Iterations 2
time step continuity errors : sum local = 1.490588e-08, global = -1.6440619e-09, cumulative = 0.00019220108
ExecutionTime = 110.60866 s  ClockTime = 112 s

Time = 882s

smoothSolver:  Solving for Ux, Initial residual = 3.0011418e-06, Final residual = 1.113207e-07, No Iterations 3
smoothSolver:  Solving for Uy, Initial residual = 8.6454535e-06, Final residual = 3.1718249e-07, No Iterations 3
smoothSolver:  Solving for Uz, Initial residual = 7.4057849e-07, Final residual = 2.778413e-08, No Iterations 3
GAMG:  Solving for p, Initial residual = 1.4471978e-05, Final residual = 6.2846507e-08, No Iterations 3
time step continuity errors : sum local = 6.4693813e-09, global = -6.4718478e-10, cumulative = 0.00019220043
ExecutionTime = 110.73497 s  ClockTime = 112 s

Time = 883s

smoothSolver:  Solving for Ux, Initial residual = 2.9522612e-06, Final residual = 1.0949283e-07, No Iterations 3
smoothSolver:  Solving for Uy, Initial residual = 8.5649469e-06, Final residual = 3.1430037e-07, No Iterations 3
smoothSolver:  Solving for Uz, Initial residual = 7.2890337e-07, Final residual = 2.7348747e-08, No Iterations 3
GAMG:  Solving for p, Initial residual = 1.4271276e-05, Final residual = 1.3715484e-07, No Iterations 2
time step continuity errors : sum local = 1.4118618e-08, global = -1.5486423e-09, cumulative = 0.00019219888
ExecutionTime = 110.8527 s  ClockTime = 112 s

Time = 884s

smoothSolver:  Solving for Ux, Initial residual = 2.902405e-06, Final residual = 1.0765683e-07, No Iterations 3
smoothSolver:  Solving for Uy, Initial residual = 8.4742267e-06, Final residual = 3.1105553e-07, No Iterations 3
smoothSolver:  Solving for Uz, Initial residual = 7.166496e-07, Final residual = 2.6894156e-08, No Iterations 3
GAMG:  Solving for p, Initial residual = 1.4059058e-05, Final residual = 1.3956112e-07, No Iterations 2
time step continuity errors : sum local = 1.4366296e-08, global = -1.588855e-09, cumulative = 0.00019219729
ExecutionTime = 110.97125 s  ClockTime = 113 s

Time = 885s

smoothSolver:  Solving for Ux, Initial residual = 2.8531593e-06, Final residual = 1.0583996e-07, No Iterations 3
smoothSolver:  Solving for Uy, Initial residual = 8.385314e-06, Final residual = 3.0788297e-07, No Iterations 3
smoothSolver:  Solving for Uz, Initial residual = 7.0460283e-07, Final residual = 2.6445687e-08, No Iterations 3
GAMG:  Solving for p, Initial residual = 1.3852475e-05, Final residual = 6.0124093e-08, No Iterations 3
time step continuity errors : sum local = 6.1891106e-09, global = -6.3804202e-10, cumulative = 0.00019219666
ExecutionTime = 111.09648 s  ClockTime = 113 s

Time = 886s

smoothSolver:  Solving for Ux, Initial residual = 2.8058041e-06, Final residual = 1.0406852e-07, No Iterations 3
smoothSolver:  Solving for Uy, Initial residual = 8.3061936e-06, Final residual = 3.0508879e-07, No Iterations 3
smoothSolver:  Solving for Uz, Initial residual = 6.9327576e-07, Final residual = 2.6021149e-08, No Iterations 3
GAMG:  Solving for p, Initial residual = 1.3657989e-05, Final residual = 1.3227004e-07, No Iterations 2
time step continuity errors : sum local = 1.361572e-08, global = -1.4914908e-09, cumulative = 0.00019219516
ExecutionTime = 111.21339 s  ClockTime = 113 s

Time = 887s

smoothSolver:  Solving for Ux, Initial residual = 2.7577001e-06, Final residual = 1.0229161e-07, No Iterations 3
smoothSolver:  Solving for Uy, Initial residual = 8.2171072e-06, Final residual = 3.0195643e-07, No Iterations 3
smoothSolver:  Solving for Uz, Initial residual = 6.8140598e-07, Final residual = 2.5578865e-08, No Iterations 3
GAMG:  Solving for p, Initial residual = 1.34531e-05, Final residual = 5.5025554e-08, No Iterations 3
time step continuity errors : sum local = 5.6642561e-09, global = -6.0010498e-10, cumulative = 0.00019219456
ExecutionTime = 111.3392 s  ClockTime = 113 s

Time = 888s

smoothSolver:  Solving for Ux, Initial residual = 2.7110817e-06, Final residual = 1.0054888e-07, No Iterations 3
smoothSolver:  Solving for Uy, Initial residual = 8.1364626e-06, Final residual = 2.9913197e-07, No Iterations 3
smoothSolver:  Solving for Uz, Initial residual = 6.701399e-07, Final residual = 2.5156605e-08, No Iterations 3
GAMG:  Solving for p, Initial residual = 1.3259593e-05, Final residual = 1.2526299e-07, No Iterations 2
time step continuity errors : sum local = 1.2894385e-08, global = -1.3421156e-09, cumulative = 0.00019219322
ExecutionTime = 111.45619 s  ClockTime = 113 s

Time = 889s

smoothSolver:  Solving for Ux, Initial residual = 2.663982e-06, Final residual = 9.8809622e-08, No Iterations 3
smoothSolver:  Solving for Uy, Initial residual = 8.0469434e-06, Final residual = 2.9599087e-07, No Iterations 3
smoothSolver:  Solving for Uz, Initial residual = 6.5841217e-07, Final residual = 2.4719625e-08, No Iterations 3
GAMG:  Solving for p, Initial residual = 1.3057335e-05, Final residual = 5.2624881e-08, No Iterations 3
time step continuity errors : sum local = 5.417118e-09, global = -5.9419826e-10, cumulative = 0.00019219263
ExecutionTime = 111.58211 s  ClockTime = 113 s

Time = 890s

smoothSolver:  Solving for Ux, Initial residual = 2.6181671e-06, Final residual = 9.7097634e-08, No Iterations 3
smoothSolver:  Solving for Uy, Initial residual = 7.96721e-06, Final residual = 2.9319377e-07, No Iterations 3
smoothSolver:  Solving for Uz, Initial residual = 6.4734425e-07, Final residual = 2.4304591e-08, No Iterations 3
GAMG:  Solving for p, Initial residual = 1.2867754e-05, Final residual = 1.247757e-07, No Iterations 2
time step continuity errors : sum local = 1.2844185e-08, global = -1.2947011e-09, cumulative = 0.00019219133
ExecutionTime = 111.69975 s  ClockTime = 113 s

Time = 891s

smoothSolver:  Solving for Ux, Initial residual = 2.5722389e-06, Final residual = 9.5398901e-08, No Iterations 3
smoothSolver:  Solving for Uy, Initial residual = 7.8799654e-06, Final residual = 2.9013019e-07, No Iterations 3
smoothSolver:  Solving for Uz, Initial residual = 6.359266e-07, Final residual = 2.387809e-08, No Iterations 3
GAMG:  Solving for p, Initial residual = 1.267132e-05, Final residual = 5.2757398e-08, No Iterations 3
time step continuity errors : sum local = 5.4307427e-09, global = -6.045326e-10, cumulative = 0.00019219073
ExecutionTime = 111.82426 s  ClockTime = 113 s

Time = 892s

smoothSolver:  Solving for Ux, Initial residual = 2.5275606e-06, Final residual = 9.3730118e-08, No Iterations 3
smoothSolver:  Solving for Uy, Initial residual = 7.802774e-06, Final residual = 2.8742609e-07, No Iterations 3
smoothSolver:  Solving for Uz, Initial residual = 6.2518278e-07, Final residual = 2.3475003e-08, No Iterations 3
GAMG:  Solving for p, Initial residual = 1.2487069e-05, Final residual = 1.2351906e-07, No Iterations 2
time step continuity errors : sum local = 1.2714791e-08, global = -1.3086783e-09, cumulative = 0.00019218942
ExecutionTime = 111.94237 s  ClockTime = 114 s

Time = 893s

smoothSolver:  Solving for Ux, Initial residual = 2.4828716e-06, Final residual = 9.2076002e-08, No Iterations 3
smoothSolver:  Solving for Uy, Initial residual = 7.717719e-06, Final residual = 2.8442352e-07, No Iterations 3
smoothSolver:  Solving for Uz, Initial residual = 6.1408628e-07, Final residual = 2.3060442e-08, No Iterations 3
GAMG:  Solving for p, Initial residual = 1.2295221e-05, Final residual = 5.1640478e-08, No Iterations 3
time step continuity errors : sum local = 5.3157532e-09, global = -5.9524251e-10, cumulative = 0.00019218882
ExecutionTime = 112.06818 s  ClockTime = 114 s

Time = 894s

smoothSolver:  Solving for Ux, Initial residual = 2.439472e-06, Final residual = 9.0453062e-08, No Iterations 3
smoothSolver:  Solving for Uy, Initial residual = 7.6421819e-06, Final residual = 2.8174401e-07, No Iterations 3
smoothSolver:  Solving for Uz, Initial residual = 6.0362027e-07, Final residual = 2.2666477e-08, No Iterations 3
GAMG:  Solving for p, Initial residual = 1.2114856e-05, Final residual = 1.1879128e-07, No Iterations 2
time step continuity errors : sum local = 1.2228087e-08, global = -1.2795493e-09, cumulative = 0.00019218755
ExecutionTime = 112.18601 s  ClockTime = 114 s

Time = 895s

smoothSolver:  Solving for Ux, Initial residual = 2.3960424e-06, Final residual = 8.8843215e-08, No Iterations 3
smoothSolver:  Solving for Uy, Initial residual = 7.5580263e-06, Final residual = 2.7874949e-07, No Iterations 3
smoothSolver:  Solving for Uz, Initial residual = 5.9277185e-07, Final residual = 2.2260324e-08, No Iterations 3
GAMG:  Solving for p, Initial residual = 1.1926791e-05, Final residual = 4.9255237e-08, No Iterations 3
time step continuity errors : sum local = 5.0702069e-09, global = -5.7327982e-10, cumulative = 0.00019218697
ExecutionTime = 112.31105 s  ClockTime = 114 s

Time = 896s

smoothSolver:  Solving for Ux, Initial residual = 2.3538024e-06, Final residual = 8.7259633e-08, No Iterations 3
smoothSolver:  Solving for Uy, Initial residual = 7.4824371e-06, Final residual = 2.760659e-07, No Iterations 3
smoothSolver:  Solving for Uz, Initial residual = 5.8249572e-07, Final residual = 2.1873184e-08, No Iterations 3
GAMG:  Solving for p, Initial residual = 1.1749519e-05, Final residual = 1.1486745e-07, No Iterations 2
time step continuity errors : sum local = 1.1824142e-08, global = -1.2000832e-09, cumulative = 0.00019218577
ExecutionTime = 112.4292 s  ClockTime = 114 s

Time = 897s

smoothSolver:  Solving for Ux, Initial residual = 2.311571e-06, Final residual = 8.5686837e-08, No Iterations 3
smoothSolver:  Solving for Uy, Initial residual = 7.3986844e-06, Final residual = 2.7308467e-07, No Iterations 3
smoothSolver:  Solving for Uz, Initial residual = 5.7186987e-07, Final residual = 2.147477e-08, No Iterations 3
GAMG:  Solving for p, Initial residual = 1.1565596e-05, Final residual = 4.755982e-08, No Iterations 3
time step continuity errors : sum local = 4.8956706e-09, global = -5.6057211e-10, cumulative = 0.00019218521
ExecutionTime = 112.55516 s  ClockTime = 114 s

Time = 898s

smoothSolver:  Solving for Ux, Initial residual = 2.2703176e-06, Final residual = 8.4138467e-08, No Iterations 3
smoothSolver:  Solving for Uy, Initial residual = 7.323882e-06, Final residual = 2.7042813e-07, No Iterations 3
smoothSolver:  Solving for Uz, Initial residual = 5.6182496e-07, Final residual = 2.1096334e-08, No Iterations 3
GAMG:  Solving for p, Initial residual = 1.1393136e-05, Final residual = 1.1323017e-07, No Iterations 2
time step continuity errors : sum local = 1.1655569e-08, global = -1.1170496e-09, cumulative = 0.00019218409
ExecutionTime = 112.67326 s  ClockTime = 114 s

Time = 899s

smoothSolver:  Solving for Ux, Initial residual = 2.2292399e-06, Final residual = 8.2605402e-08, No Iterations 3
smoothSolver:  Solving for Uy, Initial residual = 7.2414781e-06, Final residual = 2.6750542e-07, No Iterations 3
smoothSolver:  Solving for Uz, Initial residual = 5.5149577e-07, Final residual = 2.0708153e-08, No Iterations 3
GAMG:  Solving for p, Initial residual = 1.1214475e-05, Final residual = 4.6724416e-08, No Iterations 3
time step continuity errors : sum local = 4.8096622e-09, global = -5.4832742e-10, cumulative = 0.00019218355
ExecutionTime = 112.79856 s  ClockTime = 114 s

Time = 900s

smoothSolver:  Solving for Ux, Initial residual = 2.1890798e-06, Final residual = 8.1093529e-08, No Iterations 3
smoothSolver:  Solving for Uy, Initial residual = 7.1683906e-06, Final residual = 2.6489993e-07, No Iterations 3
smoothSolver:  Solving for Uz, Initial residual = 5.4173587e-07, Final residual = 2.0339535e-08, No Iterations 3
GAMG:  Solving for p, Initial residual = 1.1046744e-05, Final residual = 4.3442838e-08, No Iterations 3
time step continuity errors : sum local = 4.4718605e-09, global = -5.0587316e-10, cumulative = 0.00019218304
ExecutionTime = 112.924 s  ClockTime = 115 s

Time = 901s

smoothSolver:  Solving for Ux, Initial residual = 2.1494642e-06, Final residual = 7.9604206e-08, No Iterations 3
smoothSolver:  Solving for Uy, Initial residual = 7.0939761e-06, Final residual = 2.6223999e-07, No Iterations 3
smoothSolver:  Solving for Uz, Initial residual = 5.3199538e-07, Final residual = 1.9972185e-08, No Iterations 3
GAMG:  Solving for p, Initial residual = 1.0878113e-05, Final residual = 1.0372716e-07, No Iterations 2
time step continuity errors : sum local = 1.0677311e-08, global = -9.1770521e-10, cumulative = 0.00019218212
ExecutionTime = 113.04208 s  ClockTime = 115 s

Time = 902s

smoothSolver:  Solving for Ux, Initial residual = 2.1102361e-06, Final residual = 7.8134264e-08, No Iterations 3
smoothSolver:  Solving for Uy, Initial residual = 7.0120745e-06, Final residual = 2.5930541e-07, No Iterations 3
smoothSolver:  Solving for Uz, Initial residual = 5.2196903e-07, Final residual = 1.9594988e-08, No Iterations 3
GAMG:  Solving for p, Initial residual = 1.0703929e-05, Final residual = 4.2744339e-08, No Iterations 3
time step continuity errors : sum local = 4.3999463e-09, global = -4.7635318e-10, cumulative = 0.00019218165
ExecutionTime = 113.16738 s  ClockTime = 115 s

Time = 903s

smoothSolver:  Solving for Ux, Initial residual = 2.0717118e-06, Final residual = 7.668334e-08, No Iterations 3
smoothSolver:  Solving for Uy, Initial residual = 6.9393284e-06, Final residual = 2.566981e-07, No Iterations 3
smoothSolver:  Solving for Uz, Initial residual = 5.1250008e-07, Final residual = 1.9237277e-08, No Iterations 3
GAMG:  Solving for p, Initial residual = 1.0540501e-05, Final residual = 4.1388156e-08, No Iterations 3
time step continuity errors : sum local = 4.2603395e-09, global = -4.4893663e-10, cumulative = 0.0001921812
ExecutionTime = 113.29138 s  ClockTime = 115 s

Time = 904s

smoothSolver:  Solving for Ux, Initial residual = 2.0337762e-06, Final residual = 7.525436e-08, No Iterations 3
smoothSolver:  Solving for Uy, Initial residual = 6.8664891e-06, Final residual = 2.5409347e-07, No Iterations 3
smoothSolver:  Solving for Uz, Initial residual = 5.0313004e-07, Final residual = 1.8883719e-08, No Iterations 3
GAMG:  Solving for p, Initial residual = 1.037863e-05, Final residual = 1.0209357e-07, No Iterations 2
time step continuity errors : sum local = 1.0509109e-08, global = -8.2567722e-10, cumulative = 0.00019218037
ExecutionTime = 113.40928 s  ClockTime = 115 s

Time = 905s

smoothSolver:  Solving for Ux, Initial residual = 1.9963092e-06, Final residual = 7.3849313e-08, No Iterations 3
smoothSolver:  Solving for Uy, Initial residual = 6.787238e-06, Final residual = 2.512604e-07, No Iterations 3
smoothSolver:  Solving for Uz, Initial residual = 4.9354817e-07, Final residual = 1.8523516e-08, No Iterations 3
GAMG:  Solving for p, Initial residual = 1.0213047e-05, Final residual = 4.2640451e-08, No Iterations 3
time step continuity errors : sum local = 4.389233e-09, global = -4.3623011e-10, cumulative = 0.00019217994
ExecutionTime = 113.53386 s  ClockTime = 115 s

Time = 906s

smoothSolver:  Solving for Ux, Initial residual = 1.9595396e-06, Final residual = 7.2464364e-08, No Iterations 3
smoothSolver:  Solving for Uy, Initial residual = 6.7177814e-06, Final residual = 2.4875547e-07, No Iterations 3
smoothSolver:  Solving for Uz, Initial residual = 4.844941e-07, Final residual = 1.8182544e-08, No Iterations 3
GAMG:  Solving for p, Initial residual = 1.0057194e-05, Final residual = 4.0834425e-08, No Iterations 3
time step continuity errors : sum local = 4.203322e-09, global = -4.0695911e-10, cumulative = 0.00019217953
ExecutionTime = 113.65834 s  ClockTime = 115 s

Time = 907s

smoothSolver:  Solving for Ux, Initial residual = 1.9234434e-06, Final residual = 7.1102401e-08, No Iterations 3
smoothSolver:  Solving for Uy, Initial residual = 6.6475949e-06, Final residual = 2.4623933e-07, No Iterations 3
smoothSolver:  Solving for Uz, Initial residual = 4.7550578e-07, Final residual = 1.7844371e-08, No Iterations 3
GAMG:  Solving for p, Initial residual = 9.9020294e-06, Final residual = 9.783393e-08, No Iterations 2
time step continuity errors : sum local = 1.0070594e-08, global = -7.3822141e-10, cumulative = 0.00019217879
ExecutionTime = 113.77466 s  ClockTime = 115 s


SIMPLE solution converged in 907 iterations

End

Finalising parallel run
