/*---------------------------------------------------------------------------*\
  =========                 |
  \\      /  F ield         | OpenFOAM: The Open Source CFD Toolbox
   \\    /   O peration     | Website:  https://openfoam.org
    \\  /    A nd           | Version:  11
     \\/     M anipulation  |
\*---------------------------------------------------------------------------*/
Build  : 11-e1fc8c682ae6
Exec   : foamRun -solver incompressibleFluid -parallel
Date   : Feb 07 2026
Time   : 12:09:46
Host   : "ip-172-31-18-192"
PID    : 117341
I/O    : uncollated
Case   : /home/ubuntu/cases/bifurcation_angle30_500_ascii/Re200
nProcs : 16
Slaves : 
15
(
"ip-172-31-18-192.117342"
"ip-172-31-18-192.117343"
"ip-172-31-18-192.117344"
"ip-172-31-18-192.117345"
"ip-172-31-18-192.117346"
"ip-172-31-18-192.117347"
"ip-172-31-18-192.117348"
"ip-172-31-18-192.117349"
"ip-172-31-18-192.117350"
"ip-172-31-18-192.117351"
"ip-172-31-18-192.117352"
"ip-172-31-18-192.117353"
"ip-172-31-18-192.117354"
"ip-172-31-18-192.117355"
"ip-172-31-18-192.117356"
)

Pstream initialised with:
    floatTransfer      : false
    nProcsSimpleSum    : 0
    commsType          : nonBlocking
    polling iterations : 0
sigFpe : Enabling floating point exception trapping (FOAM_SIGFPE).
fileModificationChecking : Monitoring run-time modified files using timeStampMaster (fileModificationSkew 10)
allowSystemOperations : Allowing user-supplied system call operations

// * * * * * * * * * * * * * * * * * * * * * * * * * * * * * * * * * * * * * //
Create time

Create mesh for time = 0

Selecting solver incompressibleFluid
Selecting viscosity model Newtonian
Selecting turbulence model type laminar
Selecting laminar stress model Stokes
No MRF models present


SIMPLE: Convergence criteria found
        p: tolerance 1e-05
        U: tolerance 1e-05


SIMPLE: Operating solver in steady-state mode with 1 outer corrector
SIMPLE: Operating solver in SIMPLE mode



Starting time loop

wallShearStress wallShearStress:
    processing wall patches: 
        wall-fluid_domain

Time = 1s

smoothSolver:  Solving for Ux, Initial residual = 1, Final residual = 0.046824171, No Iterations 1
smoothSolver:  Solving for Uy, Initial residual = 1, Final residual = 0.04969091, No Iterations 1
smoothSolver:  Solving for Uz, Initial residual = 1, Final residual = 0.020456695, No Iterations 1
GAMG:  Solving for p, Initial residual = 1, Final residual = 0.0073140581, No Iterations 10
time step continuity errors : sum local = 0.00014943891, global = -3.5678219e-06, cumulative = -3.5678219e-06
ExecutionTime = 0.525356 s  ClockTime = 1 s

Time = 2s

smoothSolver:  Solving for Ux, Initial residual = 0.25415799, Final residual = 0.016434825, No Iterations 2
smoothSolver:  Solving for Uy, Initial residual = 0.32935937, Final residual = 0.015244918, No Iterations 2
smoothSolver:  Solving for Uz, Initial residual = 0.25444364, Final residual = 0.020300832, No Iterations 2
GAMG:  Solving for p, Initial residual = 0.27730108, Final residual = 0.0020928727, No Iterations 6
time step continuity errors : sum local = 0.0039957755, global = -0.0001016247, cumulative = -0.00010519252
ExecutionTime = 0.673729 s  ClockTime = 1 s

Time = 3s

smoothSolver:  Solving for Ux, Initial residual = 0.22222749, Final residual = 0.022112805, No Iterations 2
smoothSolver:  Solving for Uy, Initial residual = 0.13316835, Final residual = 0.0080347873, No Iterations 2
smoothSolver:  Solving for Uz, Initial residual = 0.49651724, Final residual = 0.017815594, No Iterations 3
GAMG:  Solving for p, Initial residual = 0.12596388, Final residual = 0.00069004113, No Iterations 3
time step continuity errors : sum local = 0.0059341649, global = 0.00010544996, cumulative = 2.5744311e-07
ExecutionTime = 0.796925 s  ClockTime = 1 s

Time = 4s

smoothSolver:  Solving for Ux, Initial residual = 0.14553088, Final residual = 0.0048560216, No Iterations 3
smoothSolver:  Solving for Uy, Initial residual = 0.070801118, Final residual = 0.0043092596, No Iterations 2
smoothSolver:  Solving for Uz, Initial residual = 0.33944839, Final residual = 0.012192232, No Iterations 3
GAMG:  Solving for p, Initial residual = 0.087315791, Final residual = 0.00075843709, No Iterations 5
time step continuity errors : sum local = 0.0065329132, global = 4.7631291e-05, cumulative = 4.7888734e-05
ExecutionTime = 0.93608 s  ClockTime = 1 s

Time = 5s

smoothSolver:  Solving for Ux, Initial residual = 0.085139616, Final residual = 0.0080372351, No Iterations 2
smoothSolver:  Solving for Uy, Initial residual = 0.18379598, Final residual = 0.012488721, No Iterations 2
smoothSolver:  Solving for Uz, Initial residual = 0.13478868, Final residual = 0.0048453216, No Iterations 3
GAMG:  Solving for p, Initial residual = 0.074649497, Final residual = 0.00066770738, No Iterations 6
time step continuity errors : sum local = 0.0028641591, global = 8.9619992e-05, cumulative = 0.00013750873
ExecutionTime = 1.080253 s  ClockTime = 1 s

Time = 6s

smoothSolver:  Solving for Ux, Initial residual = 0.088148282, Final residual = 0.0071378364, No Iterations 2
smoothSolver:  Solving for Uy, Initial residual = 0.40218205, Final residual = 0.026648871, No Iterations 2
smoothSolver:  Solving for Uz, Initial residual = 0.068059895, Final residual = 0.0023763006, No Iterations 3
GAMG:  Solving for p, Initial residual = 0.38452793, Final residual = 0.0016775336, No Iterations 5
time step continuity errors : sum local = 0.0039361595, global = -2.8791392e-05, cumulative = 0.00010871733
ExecutionTime = 1.217924 s  ClockTime = 1 s

Time = 7s

smoothSolver:  Solving for Ux, Initial residual = 0.13204556, Final residual = 0.012311103, No Iterations 2
smoothSolver:  Solving for Uy, Initial residual = 0.25171747, Final residual = 0.016108675, No Iterations 2
smoothSolver:  Solving for Uz, Initial residual = 0.21448342, Final residual = 0.0077040522, No Iterations 3
GAMG:  Solving for p, Initial residual = 0.22194743, Final residual = 0.0021746636, No Iterations 3
time step continuity errors : sum local = 0.010085605, global = -0.00017475652, cumulative = -6.6039181e-05
ExecutionTime = 1.340994 s  ClockTime = 1 s

Time = 8s

smoothSolver:  Solving for Ux, Initial residual = 0.11391126, Final residual = 0.01136727, No Iterations 2
smoothSolver:  Solving for Uy, Initial residual = 0.13429705, Final residual = 0.0090718511, No Iterations 2
smoothSolver:  Solving for Uz, Initial residual = 0.22806362, Final residual = 0.0081890461, No Iterations 3
GAMG:  Solving for p, Initial residual = 0.17188318, Final residual = 0.0009092538, No Iterations 5
time step continuity errors : sum local = 0.0036155523, global = -2.1496141e-05, cumulative = -8.7535322e-05
ExecutionTime = 1.483628 s  ClockTime = 2 s

Time = 9s

smoothSolver:  Solving for Ux, Initial residual = 0.072260238, Final residual = 0.0067052925, No Iterations 2
smoothSolver:  Solving for Uy, Initial residual = 0.25304419, Final residual = 0.019849212, No Iterations 2
smoothSolver:  Solving for Uz, Initial residual = 0.076683871, Final residual = 0.0026961597, No Iterations 3
GAMG:  Solving for p, Initial residual = 0.18019444, Final residual = 0.00087554179, No Iterations 6
time step continuity errors : sum local = 0.0013359779, global = -3.4933466e-05, cumulative = -0.00012246879
ExecutionTime = 1.63618 s  ClockTime = 2 s

Time = 10s

smoothSolver:  Solving for Ux, Initial residual = 0.075280478, Final residual = 0.0065686826, No Iterations 2
smoothSolver:  Solving for Uy, Initial residual = 0.39717163, Final residual = 0.028748268, No Iterations 2
smoothSolver:  Solving for Uz, Initial residual = 0.071387254, Final residual = 0.0025600194, No Iterations 3
GAMG:  Solving for p, Initial residual = 0.2652944, Final residual = 0.0024658561, No Iterations 4
time step continuity errors : sum local = 0.0037229691, global = -7.2071007e-05, cumulative = -0.00019453979
ExecutionTime = 1.769127 s  ClockTime = 2 s

Time = 11s

smoothSolver:  Solving for Ux, Initial residual = 0.074454632, Final residual = 0.0070810311, No Iterations 2
smoothSolver:  Solving for Uy, Initial residual = 0.23027522, Final residual = 0.015458992, No Iterations 2
smoothSolver:  Solving for Uz, Initial residual = 0.10807869, Final residual = 0.0038973514, No Iterations 3
GAMG:  Solving for p, Initial residual = 0.18691224, Final residual = 0.0012440008, No Iterations 4
time step continuity errors : sum local = 0.0028583254, global = 1.563536e-05, cumulative = -0.00017890443
ExecutionTime = 1.899325 s  ClockTime = 2 s

Time = 12s

smoothSolver:  Solving for Ux, Initial residual = 0.048477008, Final residual = 0.001566413, No Iterations 3
smoothSolver:  Solving for Uy, Initial residual = 0.14698277, Final residual = 0.011564218, No Iterations 2
smoothSolver:  Solving for Uz, Initial residual = 0.0735425, Final residual = 0.0026502952, No Iterations 3
GAMG:  Solving for p, Initial residual = 0.14720016, Final residual = 0.0010461887, No Iterations 5
time step continuity errors : sum local = 0.0018077202, global = 8.0235767e-06, cumulative = -0.00017088086
ExecutionTime = 2.038931 s  ClockTime = 2 s

Time = 13s

smoothSolver:  Solving for Ux, Initial residual = 0.029174111, Final residual = 0.0026405358, No Iterations 2
smoothSolver:  Solving for Uy, Initial residual = 0.3074278, Final residual = 0.025633429, No Iterations 2
smoothSolver:  Solving for Uz, Initial residual = 0.01626255, Final residual = 0.00052088038, No Iterations 3
GAMG:  Solving for p, Initial residual = 0.24710146, Final residual = 0.0010465705, No Iterations 6
time step continuity errors : sum local = 0.00057070429, global = 1.7585e-05, cumulative = -0.00015329586
ExecutionTime = 2.183496 s  ClockTime = 2 s

Time = 14s

smoothSolver:  Solving for Ux, Initial residual = 0.035236595, Final residual = 0.0031878227, No Iterations 2
smoothSolver:  Solving for Uy, Initial residual = 0.330135, Final residual = 0.025374583, No Iterations 2
smoothSolver:  Solving for Uz, Initial residual = 0.037518213, Final residual = 0.0013400122, No Iterations 3
GAMG:  Solving for p, Initial residual = 0.25429148, Final residual = 0.0018279127, No Iterations 4
time step continuity errors : sum local = 0.0015449687, global = 2.0298824e-05, cumulative = -0.00013299703
ExecutionTime = 2.313706 s  ClockTime = 2 s

Time = 15s

smoothSolver:  Solving for Ux, Initial residual = 0.034784827, Final residual = 0.0033449059, No Iterations 2
smoothSolver:  Solving for Uy, Initial residual = 0.17986231, Final residual = 0.012764377, No Iterations 2
smoothSolver:  Solving for Uz, Initial residual = 0.051875416, Final residual = 0.0018583833, No Iterations 3
GAMG:  Solving for p, Initial residual = 0.18902003, Final residual = 0.0015520238, No Iterations 4
time step continuity errors : sum local = 0.0016400454, global = -1.0287853e-05, cumulative = -0.00014328489
ExecutionTime = 2.444261 s  ClockTime = 2 s

Time = 16s

smoothSolver:  Solving for Ux, Initial residual = 0.024324489, Final residual = 0.00077669401, No Iterations 3
smoothSolver:  Solving for Uy, Initial residual = 0.14520604, Final residual = 0.012482504, No Iterations 2
smoothSolver:  Solving for Uz, Initial residual = 0.03243933, Final residual = 0.0011546536, No Iterations 3
GAMG:  Solving for p, Initial residual = 0.15236351, Final residual = 0.0012560695, No Iterations 5
time step continuity errors : sum local = 0.00087121491, global = -3.7150605e-06, cumulative = -0.00014699995
ExecutionTime = 2.582743 s  ClockTime = 3 s

Time = 17s

smoothSolver:  Solving for Ux, Initial residual = 0.01589827, Final residual = 0.0013767176, No Iterations 2
smoothSolver:  Solving for Uy, Initial residual = 0.2723307, Final residual = 0.023151784, No Iterations 2
smoothSolver:  Solving for Uz, Initial residual = 0.0072127244, Final residual = 0.00066096249, No Iterations 2
GAMG:  Solving for p, Initial residual = 0.43228994, Final residual = 0.0036438235, No Iterations 5
time step continuity errors : sum local = 0.00061105135, global = 6.9456542e-07, cumulative = -0.00014630538
ExecutionTime = 2.719315 s  ClockTime = 3 s

Time = 18s

smoothSolver:  Solving for Ux, Initial residual = 0.0193847, Final residual = 0.0018235783, No Iterations 2
smoothSolver:  Solving for Uy, Initial residual = 0.23786015, Final residual = 0.018696194, No Iterations 2
smoothSolver:  Solving for Uz, Initial residual = 0.021995133, Final residual = 0.00079929731, No Iterations 3
GAMG:  Solving for p, Initial residual = 0.19753637, Final residual = 0.0012078901, No Iterations 4
time step continuity errors : sum local = 0.00064406371, global = -9.3620498e-06, cumulative = -0.00015566743
ExecutionTime = 2.849303 s  ClockTime = 3 s

Time = 19s

smoothSolver:  Solving for Ux, Initial residual = 0.016281078, Final residual = 0.0016258592, No Iterations 2
smoothSolver:  Solving for Uy, Initial residual = 0.13027401, Final residual = 0.009858496, No Iterations 2
smoothSolver:  Solving for Uz, Initial residual = 0.023203635, Final residual = 0.00084301911, No Iterations 3
GAMG:  Solving for p, Initial residual = 0.15367043, Final residual = 0.00062840064, No Iterations 5
time step continuity errors : sum local = 0.00035619957, global = 4.1439416e-06, cumulative = -0.00015152349
ExecutionTime = 2.986152 s  ClockTime = 3 s

Time = 20s

smoothSolver:  Solving for Ux, Initial residual = 0.011396077, Final residual = 0.00037537975, No Iterations 3
smoothSolver:  Solving for Uy, Initial residual = 0.13045834, Final residual = 0.011881394, No Iterations 2
smoothSolver:  Solving for Uz, Initial residual = 0.011720163, Final residual = 0.00042437942, No Iterations 3
GAMG:  Solving for p, Initial residual = 0.11628555, Final residual = 0.0011040319, No Iterations 5
time step continuity errors : sum local = 0.00039957907, global = 6.7901194e-07, cumulative = -0.00015084448
ExecutionTime = 3.124976 s  ClockTime = 3 s

Time = 21s

smoothSolver:  Solving for Ux, Initial residual = 0.0085762708, Final residual = 0.00077812036, No Iterations 2
smoothSolver:  Solving for Uy, Initial residual = 0.18337427, Final residual = 0.015976135, No Iterations 2
smoothSolver:  Solving for Uz, Initial residual = 0.0045721979, Final residual = 0.00044528038, No Iterations 2
GAMG:  Solving for p, Initial residual = 0.32199232, Final residual = 0.0020226721, No Iterations 5
time step continuity errors : sum local = 0.00024843085, global = -7.6439057e-07, cumulative = -0.00015160887
ExecutionTime = 3.262036 s  ClockTime = 3 s

Time = 22s

smoothSolver:  Solving for Ux, Initial residual = 0.0087892881, Final residual = 0.000814026, No Iterations 2
smoothSolver:  Solving for Uy, Initial residual = 0.14170907, Final residual = 0.011507086, No Iterations 2
smoothSolver:  Solving for Uz, Initial residual = 0.010715682, Final residual = 0.00037727835, No Iterations 3
GAMG:  Solving for p, Initial residual = 0.19345244, Final residual = 0.0011116381, No Iterations 4
time step continuity errors : sum local = 0.00029416065, global = 2.0664458e-06, cumulative = -0.00014954242
ExecutionTime = 3.391954 s  ClockTime = 3 s

Time = 23s

smoothSolver:  Solving for Ux, Initial residual = 0.0069664538, Final residual = 0.00067916173, No Iterations 2
smoothSolver:  Solving for Uy, Initial residual = 0.079278494, Final residual = 0.006420448, No Iterations 2
smoothSolver:  Solving for Uz, Initial residual = 0.0099941648, Final residual = 0.00035120401, No Iterations 3
GAMG:  Solving for p, Initial residual = 0.15222688, Final residual = 0.00073192614, No Iterations 5
time step continuity errors : sum local = 0.00018510696, global = -1.9503947e-06, cumulative = -0.00015149282
ExecutionTime = 3.528658 s  ClockTime = 4 s

Time = 24s

smoothSolver:  Solving for Ux, Initial residual = 0.0052355796, Final residual = 0.00051237743, No Iterations 2
smoothSolver:  Solving for Uy, Initial residual = 0.08995056, Final residual = 0.0083422419, No Iterations 2
smoothSolver:  Solving for Uz, Initial residual = 0.0040995804, Final residual = 0.000134535, No Iterations 3
GAMG:  Solving for p, Initial residual = 0.13273365, Final residual = 0.0012734455, No Iterations 5
time step continuity errors : sum local = 0.00017997564, global = -3.7164544e-07, cumulative = -0.00015186446
ExecutionTime = 3.666343 s  ClockTime = 4 s

Time = 25s

smoothSolver:  Solving for Ux, Initial residual = 0.0052443772, Final residual = 0.00050422057, No Iterations 2
smoothSolver:  Solving for Uy, Initial residual = 0.10539119, Final residual = 0.009351464, No Iterations 2
smoothSolver:  Solving for Uz, Initial residual = 0.0043238253, Final residual = 0.00015185491, No Iterations 3
GAMG:  Solving for p, Initial residual = 0.12635545, Final residual = 0.00058900534, No Iterations 5
time step continuity errors : sum local = 9.927658e-05, global = -8.9119265e-08, cumulative = -0.00015195358
ExecutionTime = 3.803659 s  ClockTime = 4 s

Time = 26s

smoothSolver:  Solving for Ux, Initial residual = 0.0051214242, Final residual = 0.00016184054, No Iterations 3
smoothSolver:  Solving for Uy, Initial residual = 0.076619078, Final residual = 0.0065725104, No Iterations 2
smoothSolver:  Solving for Uz, Initial residual = 0.0061456297, Final residual = 0.00022396179, No Iterations 3
GAMG:  Solving for p, Initial residual = 0.10805199, Final residual = 0.00073821769, No Iterations 4
time step continuity errors : sum local = 0.00016424169, global = 4.4947218e-07, cumulative = -0.00015150411
ExecutionTime = 3.93762 s  ClockTime = 4 s

Time = 27s

smoothSolver:  Solving for Ux, Initial residual = 0.0041973449, Final residual = 0.00014200069, No Iterations 3
smoothSolver:  Solving for Uy, Initial residual = 0.049313122, Final residual = 0.0045822727, No Iterations 2
smoothSolver:  Solving for Uz, Initial residual = 0.0051505646, Final residual = 0.00018612097, No Iterations 3
GAMG:  Solving for p, Initial residual = 0.079474978, Final residual = 0.00045625635, No Iterations 5
time step continuity errors : sum local = 9.4312689e-05, global = 7.5232647e-07, cumulative = -0.00015075178
ExecutionTime = 4.07847 s  ClockTime = 4 s

Time = 28s

smoothSolver:  Solving for Ux, Initial residual = 0.0037873257, Final residual = 0.00012414509, No Iterations 3
smoothSolver:  Solving for Uy, Initial residual = 0.056453321, Final residual = 0.005429166, No Iterations 2
smoothSolver:  Solving for Uz, Initial residual = 0.0031752379, Final residual = 0.00010938, No Iterations 3
GAMG:  Solving for p, Initial residual = 0.062440279, Final residual = 0.00053131786, No Iterations 5
time step continuity errors : sum local = 8.0314166e-05, global = 9.9154058e-10, cumulative = -0.00015075079
ExecutionTime = 4.216634 s  ClockTime = 4 s

Time = 29s

smoothSolver:  Solving for Ux, Initial residual = 0.0033734243, Final residual = 0.0003329227, No Iterations 2
smoothSolver:  Solving for Uy, Initial residual = 0.057199299, Final residual = 0.0052778321, No Iterations 2
smoothSolver:  Solving for Uz, Initial residual = 0.0025605332, Final residual = 8.3073309e-05, No Iterations 3
GAMG:  Solving for p, Initial residual = 0.11943533, Final residual = 0.0010403848, No Iterations 4
time step continuity errors : sum local = 0.00010634895, global = 1.5567231e-06, cumulative = -0.00014919407
ExecutionTime = 4.347485 s  ClockTime = 4 s

Time = 30s

smoothSolver:  Solving for Ux, Initial residual = 0.0028287123, Final residual = 0.00028004073, No Iterations 2
smoothSolver:  Solving for Uy, Initial residual = 0.041540404, Final residual = 0.003830634, No Iterations 2
smoothSolver:  Solving for Uz, Initial residual = 0.0027873771, Final residual = 9.2600535e-05, No Iterations 3
GAMG:  Solving for p, Initial residual = 0.10626362, Final residual = 0.00076212153, No Iterations 4
time step continuity errors : sum local = 8.7341404e-05, global = -1.6594495e-07, cumulative = -0.00014936001
ExecutionTime = 4.476593 s  ClockTime = 5 s

Time = 31s

smoothSolver:  Solving for Ux, Initial residual = 0.0025512586, Final residual = 8.2427591e-05, No Iterations 3
smoothSolver:  Solving for Uy, Initial residual = 0.032942126, Final residual = 0.00326327, No Iterations 2
smoothSolver:  Solving for Uz, Initial residual = 0.0023479854, Final residual = 7.7477509e-05, No Iterations 3
GAMG:  Solving for p, Initial residual = 0.080660285, Final residual = 0.00044239887, No Iterations 5
time step continuity errors : sum local = 4.5019127e-05, global = -3.9492877e-07, cumulative = -0.00014975494
ExecutionTime = 4.616522 s  ClockTime = 5 s

Time = 32s

smoothSolver:  Solving for Ux, Initial residual = 0.0026950967, Final residual = 8.8365128e-05, No Iterations 3
smoothSolver:  Solving for Uy, Initial residual = 0.036776698, Final residual = 0.0036409963, No Iterations 2
smoothSolver:  Solving for Uz, Initial residual = 0.0024823113, Final residual = 8.4769537e-05, No Iterations 3
GAMG:  Solving for p, Initial residual = 0.048083841, Final residual = 0.000279114, No Iterations 5
time step continuity errors : sum local = 3.4428493e-05, global = -8.6889158e-08, cumulative = -0.00014984183
ExecutionTime = 4.755788 s  ClockTime = 5 s

Time = 33s

smoothSolver:  Solving for Ux, Initial residual = 0.002729, Final residual = 9.0763461e-05, No Iterations 3
smoothSolver:  Solving for Uy, Initial residual = 0.035027036, Final residual = 0.0034272491, No Iterations 2
smoothSolver:  Solving for Uz, Initial residual = 0.0028426807, Final residual = 9.9533999e-05, No Iterations 3
GAMG:  Solving for p, Initial residual = 0.047627935, Final residual = 0.00035705827, No Iterations 4
time step continuity errors : sum local = 5.1691257e-05, global = -6.983729e-07, cumulative = -0.0001505402
ExecutionTime = 4.887349 s  ClockTime = 5 s

Time = 34s

smoothSolver:  Solving for Ux, Initial residual = 0.0025547696, Final residual = 8.7233736e-05, No Iterations 3
smoothSolver:  Solving for Uy, Initial residual = 0.028281882, Final residual = 0.000899045, No Iterations 3
smoothSolver:  Solving for Uz, Initial residual = 0.0028737014, Final residual = 0.00010110231, No Iterations 3
GAMG:  Solving for p, Initial residual = 0.042001898, Final residual = 0.00034626512, No Iterations 4
time step continuity errors : sum local = 5.1933791e-05, global = 2.5937857e-07, cumulative = -0.00015028083
ExecutionTime = 5.020159 s  ClockTime = 5 s

Time = 35s

smoothSolver:  Solving for Ux, Initial residual = 0.0024298603, Final residual = 8.3688828e-05, No Iterations 3
smoothSolver:  Solving for Uy, Initial residual = 0.025401711, Final residual = 0.00083896598, No Iterations 3
smoothSolver:  Solving for Uz, Initial residual = 0.0026213686, Final residual = 9.1368024e-05, No Iterations 3
GAMG:  Solving for p, Initial residual = 0.032730458, Final residual = 0.00016375051, No Iterations 5
time step continuity errors : sum local = 2.3303473e-05, global = 1.3475976e-07, cumulative = -0.00015014607
ExecutionTime = 5.160789 s  ClockTime = 5 s

Time = 36s

smoothSolver:  Solving for Ux, Initial residual = 0.002353202, Final residual = 7.9819855e-05, No Iterations 3
smoothSolver:  Solving for Uy, Initial residual = 0.025636979, Final residual = 0.00083343045, No Iterations 3
smoothSolver:  Solving for Uz, Initial residual = 0.0023280652, Final residual = 8.00193e-05, No Iterations 3
GAMG:  Solving for p, Initial residual = 0.034099471, Final residual = 0.00032263014, No Iterations 4
time step continuity errors : sum local = 4.1905156e-05, global = 6.4379745e-07, cumulative = -0.00014950227
ExecutionTime = 5.293353 s  ClockTime = 5 s

Time = 37s

smoothSolver:  Solving for Ux, Initial residual = 0.0022368124, Final residual = 7.542962e-05, No Iterations 3
smoothSolver:  Solving for Uy, Initial residual = 0.023889652, Final residual = 0.00077603954, No Iterations 3
smoothSolver:  Solving for Uz, Initial residual = 0.002175408, Final residual = 7.4187576e-05, No Iterations 3
GAMG:  Solving for p, Initial residual = 0.039588391, Final residual = 0.00026902781, No Iterations 4
time step continuity errors : sum local = 3.2819613e-05, global = 6.3907265e-07, cumulative = -0.0001488632
ExecutionTime = 5.424719 s  ClockTime = 6 s

Time = 38s

smoothSolver:  Solving for Ux, Initial residual = 0.0021427942, Final residual = 7.2834251e-05, No Iterations 3
smoothSolver:  Solving for Uy, Initial residual = 0.021666998, Final residual = 0.00072281318, No Iterations 3
smoothSolver:  Solving for Uz, Initial residual = 0.0021352158, Final residual = 7.2934613e-05, No Iterations 3
GAMG:  Solving for p, Initial residual = 0.036258688, Final residual = 0.00025023119, No Iterations 4
time step continuity errors : sum local = 3.042929e-05, global = -1.3802248e-07, cumulative = -0.00014900122
ExecutionTime = 5.557068 s  ClockTime = 6 s

Time = 39s

smoothSolver:  Solving for Ux, Initial residual = 0.0021228903, Final residual = 7.259159e-05, No Iterations 3
smoothSolver:  Solving for Uy, Initial residual = 0.021216723, Final residual = 0.00071725415, No Iterations 3
smoothSolver:  Solving for Uz, Initial residual = 0.0021592746, Final residual = 7.4291353e-05, No Iterations 3
GAMG:  Solving for p, Initial residual = 0.029613084, Final residual = 0.00024937979, No Iterations 4
time step continuity errors : sum local = 3.1510364e-05, global = -2.5511379e-07, cumulative = -0.00014925633
ExecutionTime = 5.689829 s  ClockTime = 6 s

Time = 40s

smoothSolver:  Solving for Ux, Initial residual = 0.0021223714, Final residual = 7.2832769e-05, No Iterations 3
smoothSolver:  Solving for Uy, Initial residual = 0.021103131, Final residual = 0.00071166724, No Iterations 3
smoothSolver:  Solving for Uz, Initial residual = 0.0022101146, Final residual = 7.6676148e-05, No Iterations 3
GAMG:  Solving for p, Initial residual = 0.027042683, Final residual = 0.0002083134, No Iterations 4
time step continuity errors : sum local = 2.7591668e-05, global = -2.4643755e-07, cumulative = -0.00014950277
ExecutionTime = 5.820967 s  ClockTime = 6 s

Time = 41s

smoothSolver:  Solving for Ux, Initial residual = 0.0020950496, Final residual = 7.22864e-05, No Iterations 3
smoothSolver:  Solving for Uy, Initial residual = 0.020146468, Final residual = 0.00068270001, No Iterations 3
smoothSolver:  Solving for Uz, Initial residual = 0.0022266157, Final residual = 7.7609967e-05, No Iterations 3
GAMG:  Solving for p, Initial residual = 0.026240247, Final residual = 0.00015154585, No Iterations 4
time step continuity errors : sum local = 2.0642882e-05, global = -4.9320521e-10, cumulative = -0.00014950326
ExecutionTime = 5.952212 s  ClockTime = 6 s

Time = 42s

smoothSolver:  Solving for Ux, Initial residual = 0.0020582833, Final residual = 7.129596e-05, No Iterations 3
smoothSolver:  Solving for Uy, Initial residual = 0.019100737, Final residual = 0.00065303217, No Iterations 3
smoothSolver:  Solving for Uz, Initial residual = 0.0021868934, Final residual = 7.6262527e-05, No Iterations 3
GAMG:  Solving for p, Initial residual = 0.024764716, Final residual = 0.00018657818, No Iterations 4
time step continuity errors : sum local = 2.550639e-05, global = 1.8594443e-07, cumulative = -0.00014931732
ExecutionTime = 6.084336 s  ClockTime = 6 s

Time = 43s

smoothSolver:  Solving for Ux, Initial residual = 0.002030445, Final residual = 7.0301165e-05, No Iterations 3
smoothSolver:  Solving for Uy, Initial residual = 0.018510727, Final residual = 0.00063396605, No Iterations 3
smoothSolver:  Solving for Uz, Initial residual = 0.002109075, Final residual = 7.3371824e-05, No Iterations 3
GAMG:  Solving for p, Initial residual = 0.023990233, Final residual = 0.000194467, No Iterations 4
time step continuity errors : sum local = 2.6222718e-05, global = 2.169248e-07, cumulative = -0.00014910039
ExecutionTime = 6.217912 s  ClockTime = 6 s

Time = 44s

smoothSolver:  Solving for Ux, Initial residual = 0.0020026971, Final residual = 6.9187371e-05, No Iterations 3
smoothSolver:  Solving for Uy, Initial residual = 0.01805851, Final residual = 0.00061735359, No Iterations 3
smoothSolver:  Solving for Uz, Initial residual = 0.0020345376, Final residual = 7.058976e-05, No Iterations 3
GAMG:  Solving for p, Initial residual = 0.024545433, Final residual = 0.00019119885, No Iterations 4
time step continuity errors : sum local = 2.5358739e-05, global = 3.2474077e-07, cumulative = -0.00014877565
ExecutionTime = 6.351931 s  ClockTime = 6 s

Time = 45s

smoothSolver:  Solving for Ux, Initial residual = 0.0019740089, Final residual = 6.815423e-05, No Iterations 3
smoothSolver:  Solving for Uy, Initial residual = 0.017522033, Final residual = 0.00060035344, No Iterations 3
smoothSolver:  Solving for Uz, Initial residual = 0.001985986, Final residual = 6.8846102e-05, No Iterations 3
GAMG:  Solving for p, Initial residual = 0.024606053, Final residual = 0.00023044519, No Iterations 3
time step continuity errors : sum local = 3.0344166e-05, global = 8.3805007e-07, cumulative = -0.0001479376
ExecutionTime = 6.478248 s  ClockTime = 7 s

Time = 46s

smoothSolver:  Solving for Ux, Initial residual = 0.0019509629, Final residual = 6.7404939e-05, No Iterations 3
smoothSolver:  Solving for Uy, Initial residual = 0.017042762, Final residual = 0.00058591081, No Iterations 3
smoothSolver:  Solving for Uz, Initial residual = 0.0019586018, Final residual = 6.7977788e-05, No Iterations 3
GAMG:  Solving for p, Initial residual = 0.023650043, Final residual = 0.00015320666, No Iterations 4
time step continuity errors : sum local = 2.026082e-05, global = 8.137112e-10, cumulative = -0.00014793679
ExecutionTime = 6.611526 s  ClockTime = 7 s

Time = 47s

smoothSolver:  Solving for Ux, Initial residual = 0.0019375269, Final residual = 6.6949504e-05, No Iterations 3
smoothSolver:  Solving for Uy, Initial residual = 0.016702234, Final residual = 0.00057476987, No Iterations 3
smoothSolver:  Solving for Uz, Initial residual = 0.0019438958, Final residual = 6.7600716e-05, No Iterations 3
GAMG:  Solving for p, Initial residual = 0.022714607, Final residual = 0.00015290423, No Iterations 4
time step continuity errors : sum local = 2.0433842e-05, global = -7.7087247e-08, cumulative = -0.00014801388
ExecutionTime = 6.743482 s  ClockTime = 7 s

Time = 48s

smoothSolver:  Solving for Ux, Initial residual = 0.0019261198, Final residual = 6.6571255e-05, No Iterations 3
smoothSolver:  Solving for Uy, Initial residual = 0.016318969, Final residual = 0.0005615786, No Iterations 3
smoothSolver:  Solving for Uz, Initial residual = 0.0019310431, Final residual = 6.7286776e-05, No Iterations 3
GAMG:  Solving for p, Initial residual = 0.022075341, Final residual = 0.00013024193, No Iterations 4
time step continuity errors : sum local = 1.7607429e-05, global = -5.984413e-08, cumulative = -0.00014807372
ExecutionTime = 6.8749 s  ClockTime = 7 s

Time = 49s

smoothSolver:  Solving for Ux, Initial residual = 0.0019132834, Final residual = 6.6153754e-05, No Iterations 3
smoothSolver:  Solving for Uy, Initial residual = 0.015870739, Final residual = 0.0005463886, No Iterations 3
smoothSolver:  Solving for Uz, Initial residual = 0.0019101783, Final residual = 6.6639626e-05, No Iterations 3
GAMG:  Solving for p, Initial residual = 0.021620332, Final residual = 0.00019583795, No Iterations 3
time step continuity errors : sum local = 2.6677637e-05, global = 3.1845418e-07, cumulative = -0.00014775527
ExecutionTime = 6.999989 s  ClockTime = 7 s

Time = 50s

smoothSolver:  Solving for Ux, Initial residual = 0.0018981304, Final residual = 6.5627283e-05, No Iterations 3
smoothSolver:  Solving for Uy, Initial residual = 0.015426472, Final residual = 0.00053133556, No Iterations 3
smoothSolver:  Solving for Uz, Initial residual = 0.0018828815, Final residual = 6.5728644e-05, No Iterations 3
GAMG:  Solving for p, Initial residual = 0.02119138, Final residual = 0.00015056356, No Iterations 4
time step continuity errors : sum local = 2.0590687e-05, global = 1.9638269e-07, cumulative = -0.00014755888
ExecutionTime = 7.131644 s  ClockTime = 7 s

Time = 51s

smoothSolver:  Solving for Ux, Initial residual = 0.0018899235, Final residual = 6.5313037e-05, No Iterations 3
smoothSolver:  Solving for Uy, Initial residual = 0.015067143, Final residual = 0.00051891666, No Iterations 3
smoothSolver:  Solving for Uz, Initial residual = 0.0018473562, Final residual = 6.4456647e-05, No Iterations 3
GAMG:  Solving for p, Initial residual = 0.020975225, Final residual = 0.00015597909, No Iterations 4
time step continuity errors : sum local = 2.1320909e-05, global = 2.2985898e-07, cumulative = -0.00014732902
ExecutionTime = 7.265142 s  ClockTime = 7 s

Time = 52s

smoothSolver:  Solving for Ux, Initial residual = 0.0018812346, Final residual = 6.4977236e-05, No Iterations 3
smoothSolver:  Solving for Uy, Initial residual = 0.014744865, Final residual = 0.00050778151, No Iterations 3
smoothSolver:  Solving for Uz, Initial residual = 0.0018122737, Final residual = 6.3199927e-05, No Iterations 3
GAMG:  Solving for p, Initial residual = 0.020868136, Final residual = 0.00015116596, No Iterations 4
time step continuity errors : sum local = 2.0630882e-05, global = 2.5782886e-07, cumulative = -0.0001470712
ExecutionTime = 7.396996 s  ClockTime = 8 s

Time = 53s

smoothSolver:  Solving for Ux, Initial residual = 0.0018707601, Final residual = 6.4595592e-05, No Iterations 3
smoothSolver:  Solving for Uy, Initial residual = 0.014427167, Final residual = 0.00049716616, No Iterations 3
smoothSolver:  Solving for Uz, Initial residual = 0.001782529, Final residual = 6.2161634e-05, No Iterations 3
GAMG:  Solving for p, Initial residual = 0.020677335, Final residual = 0.0001858306, No Iterations 3
time step continuity errors : sum local = 2.536681e-05, global = 7.0714866e-07, cumulative = -0.00014636405
ExecutionTime = 7.522369 s  ClockTime = 8 s

Time = 54s

smoothSolver:  Solving for Ux, Initial residual = 0.0018573786, Final residual = 6.4140392e-05, No Iterations 3
smoothSolver:  Solving for Uy, Initial residual = 0.014098845, Final residual = 0.0004862892, No Iterations 3
smoothSolver:  Solving for Uz, Initial residual = 0.0017589085, Final residual = 6.138526e-05, No Iterations 3
GAMG:  Solving for p, Initial residual = 0.020286445, Final residual = 0.00018568108, No Iterations 3
time step continuity errors : sum local = 2.5429619e-05, global = 7.0015428e-07, cumulative = -0.00014566389
ExecutionTime = 7.646186 s  ClockTime = 8 s

Time = 55s

smoothSolver:  Solving for Ux, Initial residual = 0.0018463852, Final residual = 6.3768719e-05, No Iterations 3
smoothSolver:  Solving for Uy, Initial residual = 0.013790554, Final residual = 0.00047590064, No Iterations 3
smoothSolver:  Solving for Uz, Initial residual = 0.001736795, Final residual = 6.0656676e-05, No Iterations 3
GAMG:  Solving for p, Initial residual = 0.019949181, Final residual = 0.00011363583, No Iterations 4
time step continuity errors : sum local = 1.5621472e-05, global = 3.8346814e-07, cumulative = -0.00014528042
ExecutionTime = 7.778481 s  ClockTime = 8 s

Time = 56s

smoothSolver:  Solving for Ux, Initial residual = 0.0018402741, Final residual = 6.3576888e-05, No Iterations 3
smoothSolver:  Solving for Uy, Initial residual = 0.013503599, Final residual = 0.0004661658, No Iterations 3
smoothSolver:  Solving for Uz, Initial residual = 0.0017157633, Final residual = 5.9954705e-05, No Iterations 3
GAMG:  Solving for p, Initial residual = 0.019687502, Final residual = 0.00018768235, No Iterations 3
time step continuity errors : sum local = 2.5901566e-05, global = 7.1007326e-07, cumulative = -0.00014457035
ExecutionTime = 7.901705 s  ClockTime = 8 s

Time = 57s

smoothSolver:  Solving for Ux, Initial residual = 0.0018316848, Final residual = 6.3322115e-05, No Iterations 3
smoothSolver:  Solving for Uy, Initial residual = 0.013200748, Final residual = 0.0004559741, No Iterations 3
smoothSolver:  Solving for Uz, Initial residual = 0.001694514, Final residual = 5.9254385e-05, No Iterations 3
GAMG:  Solving for p, Initial residual = 0.019422327, Final residual = 0.00019094853, No Iterations 3
time step continuity errors : sum local = 2.6452996e-05, global = 7.6470205e-07, cumulative = -0.00014380565
ExecutionTime = 8.026934 s  ClockTime = 8 s

Time = 58s

smoothSolver:  Solving for Ux, Initial residual = 0.0018241375, Final residual = 6.311373e-05, No Iterations 3
smoothSolver:  Solving for Uy, Initial residual = 0.012905748, Final residual = 0.00044616043, No Iterations 3
smoothSolver:  Solving for Uz, Initial residual = 0.00167296, Final residual = 5.8542498e-05, No Iterations 3
GAMG:  Solving for p, Initial residual = 0.019153622, Final residual = 0.00012234213, No Iterations 4
time step continuity errors : sum local = 1.7007142e-05, global = 3.5691761e-07, cumulative = -0.00014344873
ExecutionTime = 8.158666 s  ClockTime = 8 s

Time = 59s

smoothSolver:  Solving for Ux, Initial residual = 0.0018198206, Final residual = 6.3011696e-05, No Iterations 3
smoothSolver:  Solving for Uy, Initial residual = 0.012631469, Final residual = 0.00043703867, No Iterations 3
smoothSolver:  Solving for Uz, Initial residual = 0.001650409, Final residual = 5.7776267e-05, No Iterations 3
GAMG:  Solving for p, Initial residual = 0.018979311, Final residual = 0.00012256357, No Iterations 4
time step continuity errors : sum local = 1.7079618e-05, global = 2.6688842e-07, cumulative = -0.00014318184
ExecutionTime = 8.290821 s  ClockTime = 8 s

Time = 60s

smoothSolver:  Solving for Ux, Initial residual = 0.0018138959, Final residual = 6.2841707e-05, No Iterations 3
smoothSolver:  Solving for Uy, Initial residual = 0.01236471, Final residual = 0.00042819136, No Iterations 3
smoothSolver:  Solving for Uz, Initial residual = 0.0016278386, Final residual = 5.7007453e-05, No Iterations 3
GAMG:  Solving for p, Initial residual = 0.018793325, Final residual = 0.00011467101, No Iterations 4
time step continuity errors : sum local = 1.6011803e-05, global = 1.8519986e-07, cumulative = -0.00014299664
ExecutionTime = 8.42357 s  ClockTime = 9 s

Time = 61s

smoothSolver:  Solving for Ux, Initial residual = 0.0018063755, Final residual = 6.2609663e-05, No Iterations 3
smoothSolver:  Solving for Uy, Initial residual = 0.012105575, Final residual = 0.00041955521, No Iterations 3
smoothSolver:  Solving for Uz, Initial residual = 0.0016058999, Final residual = 5.6270097e-05, No Iterations 3
GAMG:  Solving for p, Initial residual = 0.01858569, Final residual = 0.00017219449, No Iterations 3
time step continuity errors : sum local = 2.409166e-05, global = 2.9967927e-07, cumulative = -0.00014269696
ExecutionTime = 8.547952 s  ClockTime = 9 s

Time = 62s

smoothSolver:  Solving for Ux, Initial residual = 0.001795863, Final residual = 6.2261476e-05, No Iterations 3
smoothSolver:  Solving for Uy, Initial residual = 0.011847578, Final residual = 0.00041091038, No Iterations 3
smoothSolver:  Solving for Uz, Initial residual = 0.0015859469, Final residual = 5.5619568e-05, No Iterations 3
GAMG:  Solving for p, Initial residual = 0.018318445, Final residual = 0.00018133378, No Iterations 3
time step continuity errors : sum local = 2.5443254e-05, global = 3.1142936e-07, cumulative = -0.00014238554
ExecutionTime = 8.67296 s  ClockTime = 9 s

Time = 63s

smoothSolver:  Solving for Ux, Initial residual = 0.0017878771, Final residual = 6.1996039e-05, No Iterations 3
smoothSolver:  Solving for Uy, Initial residual = 0.011604473, Final residual = 0.00040270818, No Iterations 3
smoothSolver:  Solving for Uz, Initial residual = 0.0015660825, Final residual = 5.4961802e-05, No Iterations 3
GAMG:  Solving for p, Initial residual = 0.018119701, Final residual = 0.00010887745, No Iterations 4
time step continuity errors : sum local = 1.5319806e-05, global = 2.186279e-07, cumulative = -0.00014216691
ExecutionTime = 8.805677 s  ClockTime = 9 s

Time = 64s

smoothSolver:  Solving for Ux, Initial residual = 0.0017846675, Final residual = 6.1894414e-05, No Iterations 3
smoothSolver:  Solving for Uy, Initial residual = 0.011374154, Final residual = 0.00039485941, No Iterations 3
smoothSolver:  Solving for Uz, Initial residual = 0.0015454682, Final residual = 5.4253524e-05, No Iterations 3
GAMG:  Solving for p, Initial residual = 0.017967675, Final residual = 0.00010278553, No Iterations 4
time step continuity errors : sum local = 1.4493101e-05, global = 2.63922e-07, cumulative = -0.00014190299
ExecutionTime = 8.936867 s  ClockTime = 9 s

Time = 65s

smoothSolver:  Solving for Ux, Initial residual = 0.001780552, Final residual = 6.1758312e-05, No Iterations 3
smoothSolver:  Solving for Uy, Initial residual = 0.011144112, Final residual = 0.00038696188, No Iterations 3
smoothSolver:  Solving for Uz, Initial residual = 0.0015257969, Final residual = 5.3583879e-05, No Iterations 3
GAMG:  Solving for p, Initial residual = 0.017799257, Final residual = 0.00016984885, No Iterations 3
time step continuity errors : sum local = 2.4003972e-05, global = 5.6230394e-07, cumulative = -0.00014134068
ExecutionTime = 9.062645 s  ClockTime = 9 s

Time = 66s

smoothSolver:  Solving for Ux, Initial residual = 0.0017727736, Final residual = 6.1488629e-05, No Iterations 3
smoothSolver:  Solving for Uy, Initial residual = 0.010910208, Final residual = 0.00037903092, No Iterations 3
smoothSolver:  Solving for Uz, Initial residual = 0.0015076515, Final residual = 5.2980789e-05, No Iterations 3
GAMG:  Solving for p, Initial residual = 0.01756359, Final residual = 0.00017493529, No Iterations 3
time step continuity errors : sum local = 2.479428e-05, global = 6.5888161e-07, cumulative = -0.0001406818
ExecutionTime = 9.188186 s  ClockTime = 9 s

Time = 67s

smoothSolver:  Solving for Ux, Initial residual = 0.0017654171, Final residual = 6.1232561e-05, No Iterations 3
smoothSolver:  Solving for Uy, Initial residual = 0.010684427, Final residual = 0.00037135696, No Iterations 3
smoothSolver:  Solving for Uz, Initial residual = 0.0014898931, Final residual = 5.2383763e-05, No Iterations 3
GAMG:  Solving for p, Initial residual = 0.01736197, Final residual = 0.00010512425, No Iterations 4
time step continuity errors : sum local = 1.494137e-05, global = 3.5831259e-07, cumulative = -0.00014032349
ExecutionTime = 9.32076 s  ClockTime = 9 s

Time = 68s

smoothSolver:  Solving for Ux, Initial residual = 0.0017606855, Final residual = 6.105937e-05, No Iterations 3
smoothSolver:  Solving for Uy, Initial residual = 0.010473982, Final residual = 0.00036410386, No Iterations 3
smoothSolver:  Solving for Uz, Initial residual = 0.0014718668, Final residual = 5.1761388e-05, No Iterations 3
GAMG:  Solving for p, Initial residual = 0.01720848, Final residual = 9.9783148e-05, No Iterations 4
time step continuity errors : sum local = 1.4213775e-05, global = 3.2273087e-07, cumulative = -0.00014000076
ExecutionTime = 9.453206 s  ClockTime = 10 s

Time = 69s

smoothSolver:  Solving for Ux, Initial residual = 0.0017551356, Final residual = 6.0872264e-05, No Iterations 3
smoothSolver:  Solving for Uy, Initial residual = 0.010276228, Final residual = 0.00035731685, No Iterations 3
smoothSolver:  Solving for Uz, Initial residual = 0.0014543213, Final residual = 5.1160259e-05, No Iterations 3
GAMG:  Solving for p, Initial residual = 0.017037672, Final residual = 0.00016210584, No Iterations 3
time step continuity errors : sum local = 2.3144448e-05, global = 4.7627912e-07, cumulative = -0.00013952448
ExecutionTime = 9.577222 s  ClockTime = 10 s

Time = 70s

smoothSolver:  Solving for Ux, Initial residual = 0.0017469029, Final residual = 6.0607903e-05, No Iterations 3
smoothSolver:  Solving for Uy, Initial residual = 0.010085759, Final residual = 0.00035078612, No Iterations 3
smoothSolver:  Solving for Uz, Initial residual = 0.0014378062, Final residual = 5.0607727e-05, No Iterations 3
GAMG:  Solving for p, Initial residual = 0.016803748, Final residual = 9.5377345e-05, No Iterations 4
time step continuity errors : sum local = 1.3655563e-05, global = 2.1959504e-07, cumulative = -0.00013930488
ExecutionTime = 9.710485 s  ClockTime = 10 s

Time = 71s

smoothSolver:  Solving for Ux, Initial residual = 0.0017422895, Final residual = 6.047757e-05, No Iterations 3
smoothSolver:  Solving for Uy, Initial residual = 0.0099053344, Final residual = 0.00034450858, No Iterations 3
smoothSolver:  Solving for Uz, Initial residual = 0.0014206455, Final residual = 5.0022116e-05, No Iterations 3
GAMG:  Solving for p, Initial residual = 0.016657853, Final residual = 0.00016635928, No Iterations 3
time step continuity errors : sum local = 2.3873205e-05, global = 3.3514955e-07, cumulative = -0.00013896973
ExecutionTime = 9.83528 s  ClockTime = 10 s

Time = 72s

smoothSolver:  Solving for Ux, Initial residual = 0.0017353954, Final residual = 6.0270196e-05, No Iterations 3
smoothSolver:  Solving for Uy, Initial residual = 0.009725513, Final residual = 0.00033833152, No Iterations 3
smoothSolver:  Solving for Uz, Initial residual = 0.0014043716, Final residual = 4.9483315e-05, No Iterations 3
GAMG:  Solving for p, Initial residual = 0.016505103, Final residual = 9.7417776e-05, No Iterations 4
time step continuity errors : sum local = 1.4017605e-05, global = 1.962083e-07, cumulative = -0.00013877352
ExecutionTime = 9.967301 s  ClockTime = 10 s

Time = 73s

smoothSolver:  Solving for Ux, Initial residual = 0.0017317854, Final residual = 6.0181674e-05, No Iterations 3
smoothSolver:  Solving for Uy, Initial residual = 0.0095508177, Final residual = 0.0003323093, No Iterations 3
smoothSolver:  Solving for Uz, Initial residual = 0.0013875059, Final residual = 4.891066e-05, No Iterations 3
GAMG:  Solving for p, Initial residual = 0.016419992, Final residual = 9.3022285e-05, No Iterations 4
time step continuity errors : sum local = 1.341361e-05, global = 2.1557103e-07, cumulative = -0.00013855795
ExecutionTime = 10.098855 s  ClockTime = 10 s

Time = 74s

smoothSolver:  Solving for Ux, Initial residual = 0.001727044, Final residual = 6.0057935e-05, No Iterations 3
smoothSolver:  Solving for Uy, Initial residual = 0.0093797903, Final residual = 0.00032646825, No Iterations 3
smoothSolver:  Solving for Uz, Initial residual = 0.0013711708, Final residual = 4.8363214e-05, No Iterations 3
GAMG:  Solving for p, Initial residual = 0.016308857, Final residual = 0.00015627645, No Iterations 3
time step continuity errors : sum local = 2.2583215e-05, global = 4.0864955e-07, cumulative = -0.0001381493
ExecutionTime = 10.225235 s  ClockTime = 10 s

Time = 75s

smoothSolver:  Solving for Ux, Initial residual = 0.0017191712, Final residual = 5.9852685e-05, No Iterations 3
smoothSolver:  Solving for Uy, Initial residual = 0.0092077752, Final residual = 0.00032069128, No Iterations 3
smoothSolver:  Solving for Uz, Initial residual = 0.0013558864, Final residual = 4.7868671e-05, No Iterations 3
GAMG:  Solving for p, Initial residual = 0.016152793, Final residual = 9.0262911e-05, No Iterations 4
time step continuity errors : sum local = 1.3077174e-05, global = 2.6501389e-07, cumulative = -0.00013788429
ExecutionTime = 10.359824 s  ClockTime = 11 s

Time = 76s

smoothSolver:  Solving for Ux, Initial residual = 0.0017135541, Final residual = 5.972994e-05, No Iterations 3
smoothSolver:  Solving for Uy, Initial residual = 0.0090335452, Final residual = 0.00031482146, No Iterations 3
smoothSolver:  Solving for Uz, Initial residual = 0.0013400124, Final residual = 4.734e-05, No Iterations 3
GAMG:  Solving for p, Initial residual = 0.016073649, Final residual = 0.000156492, No Iterations 3
time step continuity errors : sum local = 2.271962e-05, global = 4.9651937e-07, cumulative = -0.00013738777
ExecutionTime = 10.485281 s  ClockTime = 11 s

Time = 77s

smoothSolver:  Solving for Ux, Initial residual = 0.0017057888, Final residual = 5.9537933e-05, No Iterations 3
smoothSolver:  Solving for Uy, Initial residual = 0.0088612567, Final residual = 0.00030910871, No Iterations 3
smoothSolver:  Solving for Uz, Initial residual = 0.0013249781, Final residual = 4.6854914e-05, No Iterations 3
GAMG:  Solving for p, Initial residual = 0.015916579, Final residual = 9.1854843e-05, No Iterations 4
time step continuity errors : sum local = 1.3368537e-05, global = 2.7917366e-07, cumulative = -0.0001371086
ExecutionTime = 10.616709 s  ClockTime = 11 s

Time = 78s

smoothSolver:  Solving for Ux, Initial residual = 0.0017004314, Final residual = 5.9425977e-05, No Iterations 3
smoothSolver:  Solving for Uy, Initial residual = 0.0086965692, Final residual = 0.00030351986, No Iterations 3
smoothSolver:  Solving for Uz, Initial residual = 0.0013094506, Final residual = 4.634322e-05, No Iterations 3
GAMG:  Solving for p, Initial residual = 0.015816252, Final residual = 0.0001579353, No Iterations 3
time step continuity errors : sum local = 2.3030138e-05, global = 4.7445398e-07, cumulative = -0.00013663414
ExecutionTime = 10.741603 s  ClockTime = 11 s

Time = 79s

smoothSolver:  Solving for Ux, Initial residual = 0.001692998, Final residual = 5.9232875e-05, No Iterations 3
smoothSolver:  Solving for Uy, Initial residual = 0.0085468203, Final residual = 0.00029843922, No Iterations 3
smoothSolver:  Solving for Uz, Initial residual = 0.0012950476, Final residual = 4.588005e-05, No Iterations 3
GAMG:  Solving for p, Initial residual = 0.015661378, Final residual = 8.9905324e-05, No Iterations 4
time step continuity errors : sum local = 1.3142024e-05, global = 2.4583539e-07, cumulative = -0.00013638831
ExecutionTime = 10.873686 s  ClockTime = 11 s

Time = 80s

smoothSolver:  Solving for Ux, Initial residual = 0.001688006, Final residual = 5.9116702e-05, No Iterations 3
smoothSolver:  Solving for Uy, Initial residual = 0.008406188, Final residual = 0.000293693, No Iterations 3
smoothSolver:  Solving for Uz, Initial residual = 0.0012804528, Final residual = 4.5394134e-05, No Iterations 3
GAMG:  Solving for p, Initial residual = 0.015527932, Final residual = 0.0001523073, No Iterations 3
time step continuity errors : sum local = 2.2307962e-05, global = 3.8301457e-07, cumulative = -0.00013600529
ExecutionTime = 10.999205 s  ClockTime = 11 s

Time = 81s

smoothSolver:  Solving for Ux, Initial residual = 0.0016807298, Final residual = 5.892281e-05, No Iterations 3
smoothSolver:  Solving for Uy, Initial residual = 0.0082734279, Final residual = 0.00028923668, No Iterations 3
smoothSolver:  Solving for Uz, Initial residual = 0.0012668194, Final residual = 4.4950528e-05, No Iterations 3
GAMG:  Solving for p, Initial residual = 0.015364266, Final residual = 8.437532e-05, No Iterations 4
time step continuity errors : sum local = 1.2388381e-05, global = 2.0844059e-07, cumulative = -0.00013579685
ExecutionTime = 11.131565 s  ClockTime = 11 s

Time = 82s

smoothSolver:  Solving for Ux, Initial residual = 0.0016755878, Final residual = 5.8804251e-05, No Iterations 3
smoothSolver:  Solving for Uy, Initial residual = 0.0081428265, Final residual = 0.00028480752, No Iterations 3
smoothSolver:  Solving for Uz, Initial residual = 0.0012527724, Final residual = 4.4477324e-05, No Iterations 3
GAMG:  Solving for p, Initial residual = 0.015272819, Final residual = 0.00014694038, No Iterations 3
time step continuity errors : sum local = 2.1618419e-05, global = 3.33688e-07, cumulative = -0.00013546316
ExecutionTime = 11.257309 s  ClockTime = 11 s

Time = 83s

smoothSolver:  Solving for Ux, Initial residual = 0.0016680917, Final residual = 5.8604305e-05, No Iterations 3
smoothSolver:  Solving for Uy, Initial residual = 0.00801833, Final residual = 0.00028060079, No Iterations 3
smoothSolver:  Solving for Uz, Initial residual = 0.0012395608, Final residual = 4.4043501e-05, No Iterations 3
GAMG:  Solving for p, Initial residual = 0.015167712, Final residual = 8.1729012e-05, No Iterations 4
time step continuity errors : sum local = 1.2053795e-05, global = 1.9150482e-07, cumulative = -0.00013527166
ExecutionTime = 11.389855 s  ClockTime = 12 s

Time = 84s

smoothSolver:  Solving for Ux, Initial residual = 0.0016627121, Final residual = 5.8484587e-05, No Iterations 3
smoothSolver:  Solving for Uy, Initial residual = 0.0078980448, Final residual = 0.00027647066, No Iterations 3
smoothSolver:  Solving for Uz, Initial residual = 0.0012259142, Final residual = 4.3585312e-05, No Iterations 3
GAMG:  Solving for p, Initial residual = 0.015127232, Final residual = 0.00014684625, No Iterations 3
time step continuity errors : sum local = 2.170254e-05, global = 3.3994946e-07, cumulative = -0.00013493171
ExecutionTime = 11.513729 s  ClockTime = 12 s

Time = 85s

smoothSolver:  Solving for Ux, Initial residual = 0.0016552924, Final residual = 5.8303694e-05, No Iterations 3
smoothSolver:  Solving for Uy, Initial residual = 0.0077823641, Final residual = 0.00027257755, No Iterations 3
smoothSolver:  Solving for Uz, Initial residual = 0.0012130654, Final residual = 4.3166433e-05, No Iterations 3
GAMG:  Solving for p, Initial residual = 0.014997568, Final residual = 8.1508928e-05, No Iterations 4
time step continuity errors : sum local = 1.2075761e-05, global = 2.1549138e-07, cumulative = -0.00013471622
ExecutionTime = 11.646293 s  ClockTime = 12 s

Time = 86s

smoothSolver:  Solving for Ux, Initial residual = 0.0016499424, Final residual = 5.8202235e-05, No Iterations 3
smoothSolver:  Solving for Uy, Initial residual = 0.0076706923, Final residual = 0.0002687249, No Iterations 3
smoothSolver:  Solving for Uz, Initial residual = 0.0011998928, Final residual = 4.2727132e-05, No Iterations 3
GAMG:  Solving for p, Initial residual = 0.01490245, Final residual = 0.00014695307, No Iterations 3
time step continuity errors : sum local = 2.1816545e-05, global = 3.6774399e-07, cumulative = -0.00013434847
ExecutionTime = 11.769565 s  ClockTime = 12 s

Time = 87s

smoothSolver:  Solving for Ux, Initial residual = 0.0016424595, Final residual = 5.8030614e-05, No Iterations 3
smoothSolver:  Solving for Uy, Initial residual = 0.0075600909, Final residual = 0.00026497101, No Iterations 3
smoothSolver:  Solving for Uz, Initial residual = 0.0011874004, Final residual = 4.2322372e-05, No Iterations 3
GAMG:  Solving for p, Initial residual = 0.014778791, Final residual = 8.1026246e-05, No Iterations 4
time step continuity errors : sum local = 1.2057771e-05, global = 2.2582425e-07, cumulative = -0.00013412265
ExecutionTime = 11.901553 s  ClockTime = 12 s

Time = 88s

smoothSolver:  Solving for Ux, Initial residual = 0.0016369186, Final residual = 5.7927692e-05, No Iterations 3
smoothSolver:  Solving for Uy, Initial residual = 0.0074546274, Final residual = 0.00026125642, No Iterations 3
smoothSolver:  Solving for Uz, Initial residual = 0.0011745681, Final residual = 4.1899267e-05, No Iterations 3
GAMG:  Solving for p, Initial residual = 0.01471661, Final residual = 0.00014408683, No Iterations 3
time step continuity errors : sum local = 2.1485479e-05, global = 3.6964347e-07, cumulative = -0.00013375301
ExecutionTime = 12.027357 s  ClockTime = 12 s

Time = 89s

smoothSolver:  Solving for Ux, Initial residual = 0.0016291731, Final residual = 5.7763389e-05, No Iterations 3
smoothSolver:  Solving for Uy, Initial residual = 0.0073494876, Final residual = 0.00025761772, No Iterations 3
smoothSolver:  Solving for Uz, Initial residual = 0.0011624182, Final residual = 4.1510643e-05, No Iterations 3
GAMG:  Solving for p, Initial residual = 0.014598148, Final residual = 7.8564838e-05, No Iterations 4
time step continuity errors : sum local = 1.1742451e-05, global = 2.1663502e-07, cumulative = -0.00013353637
ExecutionTime = 12.159404 s  ClockTime = 12 s

Time = 90s

smoothSolver:  Solving for Ux, Initial residual = 0.001623257, Final residual = 5.7657445e-05, No Iterations 3
smoothSolver:  Solving for Uy, Initial residual = 0.0072466044, Final residual = 0.00025406946, No Iterations 3
smoothSolver:  Solving for Uz, Initial residual = 0.0011499931, Final residual = 4.1100556e-05, No Iterations 3
GAMG:  Solving for p, Initial residual = 0.014520394, Final residual = 0.0001399192, No Iterations 3
time step continuity errors : sum local = 2.095311e-05, global = 3.4005169e-07, cumulative = -0.00013319632
ExecutionTime = 12.285408 s  ClockTime = 12 s

Time = 91s

smoothSolver:  Solving for Ux, Initial residual = 0.001615286, Final residual = 5.7469576e-05, No Iterations 3
smoothSolver:  Solving for Uy, Initial residual = 0.0071464245, Final residual = 0.00025060191, No Iterations 3
smoothSolver:  Solving for Uz, Initial residual = 0.0011382176, Final residual = 4.0720302e-05, No Iterations 3
GAMG:  Solving for p, Initial residual = 0.014420306, Final residual = 7.5703813e-05, No Iterations 4
time step continuity errors : sum local = 1.1362422e-05, global = 1.9728485e-07, cumulative = -0.00013299904
ExecutionTime = 12.418543 s  ClockTime = 13 s

Time = 92s

smoothSolver:  Solving for Ux, Initial residual = 0.001609237, Final residual = 5.7339197e-05, No Iterations 3
smoothSolver:  Solving for Uy, Initial residual = 0.0070515516, Final residual = 0.00024726273, No Iterations 3
smoothSolver:  Solving for Uz, Initial residual = 0.0011262008, Final residual = 4.0319049e-05, No Iterations 3
GAMG:  Solving for p, Initial residual = 0.014362387, Final residual = 0.00013710237, No Iterations 3
time step continuity errors : sum local = 2.0617069e-05, global = 3.0316074e-07, cumulative = -0.00013269587
ExecutionTime = 12.542958 s  ClockTime = 13 s

Time = 93s

smoothSolver:  Solving for Ux, Initial residual = 0.001601398, Final residual = 5.7129005e-05, No Iterations 3
smoothSolver:  Solving for Uy, Initial residual = 0.0069604044, Final residual = 0.00024403651, No Iterations 3
smoothSolver:  Solving for Uz, Initial residual = 0.0011148923, Final residual = 3.9948472e-05, No Iterations 3
GAMG:  Solving for p, Initial residual = 0.01427887, Final residual = 0.0001426656, No Iterations 3
time step continuity errors : sum local = 2.1500893e-05, global = 3.1347459e-07, cumulative = -0.0001323824
ExecutionTime = 12.666626 s  ClockTime = 13 s

Time = 94s

smoothSolver:  Solving for Ux, Initial residual = 0.0015942439, Final residual = 5.6934545e-05, No Iterations 3
smoothSolver:  Solving for Uy, Initial residual = 0.0068757216, Final residual = 0.00024097741, No Iterations 3
smoothSolver:  Solving for Uz, Initial residual = 0.0011036546, Final residual = 3.9577393e-05, No Iterations 3
GAMG:  Solving for p, Initial residual = 0.014169811, Final residual = 7.7910327e-05, No Iterations 4
time step continuity errors : sum local = 1.1766581e-05, global = 1.9664122e-07, cumulative = -0.00013218576
ExecutionTime = 12.80003 s  ClockTime = 13 s

Time = 95s

smoothSolver:  Solving for Ux, Initial residual = 0.0015889281, Final residual = 5.6808259e-05, No Iterations 3
smoothSolver:  Solving for Uy, Initial residual = 0.0067981116, Final residual = 0.00023814495, No Iterations 3
smoothSolver:  Solving for Uz, Initial residual = 0.001092216, Final residual = 3.918983e-05, No Iterations 3
GAMG:  Solving for p, Initial residual = 0.014069676, Final residual = 0.00013967725, No Iterations 3
time step continuity errors : sum local = 2.1131519e-05, global = 3.2409318e-07, cumulative = -0.00013186167
ExecutionTime = 12.924635 s  ClockTime = 13 s

Time = 96s

smoothSolver:  Solving for Ux, Initial residual = 0.0015813649, Final residual = 5.6602277e-05, No Iterations 3
smoothSolver:  Solving for Uy, Initial residual = 0.0067171237, Final residual = 0.00023534259, No Iterations 3
smoothSolver:  Solving for Uz, Initial residual = 0.001081347, Final residual = 3.883246e-05, No Iterations 3
GAMG:  Solving for p, Initial residual = 0.013944693, Final residual = 7.4470756e-05, No Iterations 4
time step continuity errors : sum local = 1.1289382e-05, global = 1.9932869e-07, cumulative = -0.00013166234
ExecutionTime = 13.056455 s  ClockTime = 13 s

Time = 97s

smoothSolver:  Solving for Ux, Initial residual = 0.0015749894, Final residual = 5.6436906e-05, No Iterations 3
smoothSolver:  Solving for Uy, Initial residual = 0.0066381852, Final residual = 0.00023258363, No Iterations 3
smoothSolver:  Solving for Uz, Initial residual = 0.0010702472, Final residual = 3.8458963e-05, No Iterations 3
GAMG:  Solving for p, Initial residual = 0.013839553, Final residual = 0.00013158187, No Iterations 3
time step continuity errors : sum local = 1.9981195e-05, global = 3.1708891e-07, cumulative = -0.00013134525
ExecutionTime = 13.182521 s  ClockTime = 13 s

Time = 98s

smoothSolver:  Solving for Ux, Initial residual = 0.0015667045, Final residual = 5.6204826e-05, No Iterations 3
smoothSolver:  Solving for Uy, Initial residual = 0.0065571271, Final residual = 0.00022979441, No Iterations 3
smoothSolver:  Solving for Uz, Initial residual = 0.0010597188, Final residual = 3.8113349e-05, No Iterations 3
GAMG:  Solving for p, Initial residual = 0.013741043, Final residual = 0.00013455773, No Iterations 3
time step continuity errors : sum local = 2.0474429e-05, global = 3.2724723e-07, cumulative = -0.000131018
ExecutionTime = 13.308246 s  ClockTime = 13 s

Time = 99s

smoothSolver:  Solving for Ux, Initial residual = 0.0015590405, Final residual = 5.5982102e-05, No Iterations 3
smoothSolver:  Solving for Uy, Initial residual = 0.0064829633, Final residual = 0.00022713703, No Iterations 3
smoothSolver:  Solving for Uz, Initial residual = 0.0010492645, Final residual = 3.7765134e-05, No Iterations 3
GAMG:  Solving for p, Initial residual = 0.013652891, Final residual = 7.174398e-05, No Iterations 4
time step continuity errors : sum local = 1.0937681e-05, global = 2.0037587e-07, cumulative = -0.00013081762
ExecutionTime = 13.441091 s  ClockTime = 14 s

Time = 100s

smoothSolver:  Solving for Ux, Initial residual = 0.0015531428, Final residual = 5.5812171e-05, No Iterations 3
smoothSolver:  Solving for Uy, Initial residual = 0.0064192945, Final residual = 0.0002247623, No Iterations 3
smoothSolver:  Solving for Uz, Initial residual = 0.0010386752, Final residual = 3.7403922e-05, No Iterations 3
GAMG:  Solving for p, Initial residual = 0.013625231, Final residual = 0.00013081492, No Iterations 3
time step continuity errors : sum local = 1.997591e-05, global = 3.1181036e-07, cumulative = -0.00013050581
ExecutionTime = 13.564374 s  ClockTime = 14 s

Time = 101s

smoothSolver:  Solving for Ux, Initial residual = 0.0015457273, Final residual = 5.5587082e-05, No Iterations 3
smoothSolver:  Solving for Uy, Initial residual = 0.0063571296, Final residual = 0.00022250531, No Iterations 3
smoothSolver:  Solving for Uz, Initial residual = 0.0010287928, Final residual = 3.707635e-05, No Iterations 3
GAMG:  Solving for p, Initial residual = 0.01354687, Final residual = 0.00013247677, No Iterations 3
time step continuity errors : sum local = 2.026943e-05, global = 3.1083491e-07, cumulative = -0.00013019498
ExecutionTime = 13.689006 s  ClockTime = 14 s

Time = 102s

smoothSolver:  Solving for Ux, Initial residual = 0.0015388173, Final residual = 5.5383229e-05, No Iterations 3
smoothSolver:  Solving for Uy, Initial residual = 0.0063023769, Final residual = 0.00022057376, No Iterations 3
smoothSolver:  Solving for Uz, Initial residual = 0.0010191712, Final residual = 3.6759282e-05, No Iterations 3
GAMG:  Solving for p, Initial residual = 0.013474903, Final residual = 6.9082652e-05, No Iterations 4
time step continuity errors : sum local = 1.0590578e-05, global = 1.8709216e-07, cumulative = -0.00013000789
ExecutionTime = 13.822337 s  ClockTime = 14 s

Time = 103s

smoothSolver:  Solving for Ux, Initial residual = 0.0015332892, Final residual = 5.5226416e-05, No Iterations 3
smoothSolver:  Solving for Uy, Initial residual = 0.0062549152, Final residual = 0.00021891629, No Iterations 3
smoothSolver:  Solving for Uz, Initial residual = 0.0010095153, Final residual = 3.6433012e-05, No Iterations 3
GAMG:  Solving for p, Initial residual = 0.01343702, Final residual = 0.00012613597, No Iterations 3
time step continuity errors : sum local = 1.9369494e-05, global = 2.8415349e-07, cumulative = -0.00012972373
ExecutionTime = 13.94716 s  ClockTime = 14 s

Time = 104s

smoothSolver:  Solving for Ux, Initial residual = 0.0015257818, Final residual = 5.5002769e-05, No Iterations 3
smoothSolver:  Solving for Uy, Initial residual = 0.006201531, Final residual = 0.00021699905, No Iterations 3
smoothSolver:  Solving for Uz, Initial residual = 0.0010001612, Final residual = 3.6124988e-05, No Iterations 3
GAMG:  Solving for p, Initial residual = 0.013350086, Final residual = 0.00012773235, No Iterations 3
time step continuity errors : sum local = 1.965171e-05, global = 2.8842448e-07, cumulative = -0.00012943531
ExecutionTime = 14.07266 s  ClockTime = 14 s

Time = 105s

smoothSolver:  Solving for Ux, Initial residual = 0.0015184164, Final residual = 5.4779789e-05, No Iterations 3
smoothSolver:  Solving for Uy, Initial residual = 0.0061451876, Final residual = 0.00021499071, No Iterations 3
smoothSolver:  Solving for Uz, Initial residual = 0.00099069311, Final residual = 3.5811924e-05, No Iterations 3
GAMG:  Solving for p, Initial residual = 0.013268603, Final residual = 0.00013154256, No Iterations 3
time step continuity errors : sum local = 2.0274869e-05, global = 3.0439564e-07, cumulative = -0.00012913091
ExecutionTime = 14.197525 s  ClockTime = 14 s

Time = 106s

smoothSolver:  Solving for Ux, Initial residual = 0.0015112464, Final residual = 5.4562795e-05, No Iterations 3
smoothSolver:  Solving for Uy, Initial residual = 0.0060864995, Final residual = 0.00021289867, No Iterations 3
smoothSolver:  Solving for Uz, Initial residual = 0.00098108341, Final residual = 3.5491531e-05, No Iterations 3
GAMG:  Solving for p, Initial residual = 0.013185696, Final residual = 6.9263016e-05, No Iterations 4
time step continuity errors : sum local = 1.06942e-05, global = 1.9051714e-07, cumulative = -0.0001289404
ExecutionTime = 14.331052 s  ClockTime = 15 s

Time = 107s

smoothSolver:  Solving for Ux, Initial residual = 0.0015049812, Final residual = 5.4371953e-05, No Iterations 3
smoothSolver:  Solving for Uy, Initial residual = 0.0060337592, Final residual = 0.00021096214, No Iterations 3
smoothSolver:  Solving for Uz, Initial residual = 0.00097127855, Final residual = 3.5156797e-05, No Iterations 3
GAMG:  Solving for p, Initial residual = 0.013107653, Final residual = 0.00012345831, No Iterations 3
time step continuity errors : sum local = 1.9088445e-05, global = 3.0260255e-07, cumulative = -0.00012863779
ExecutionTime = 14.458915 s  ClockTime = 15 s

Time = 108s

smoothSolver:  Solving for Ux, Initial residual = 0.0014970746, Final residual = 5.4127985e-05, No Iterations 3
smoothSolver:  Solving for Uy, Initial residual = 0.0059794389, Final residual = 0.000209006, No Iterations 3
smoothSolver:  Solving for Uz, Initial residual = 0.00096201237, Final residual = 3.4848482e-05, No Iterations 3
GAMG:  Solving for p, Initial residual = 0.012996907, Final residual = 0.000123123, No Iterations 3
time step continuity errors : sum local = 1.9070275e-05, global = 3.0934368e-07, cumulative = -0.00012832845
ExecutionTime = 14.584505 s  ClockTime = 15 s

Time = 109s

smoothSolver:  Solving for Ux, Initial residual = 0.0014894185, Final residual = 5.3872955e-05, No Iterations 3
smoothSolver:  Solving for Uy, Initial residual = 0.0059316297, Final residual = 0.00020736737, No Iterations 3
smoothSolver:  Solving for Uz, Initial residual = 0.00095300204, Final residual = 3.454687e-05, No Iterations 3
GAMG:  Solving for p, Initial residual = 0.012928555, Final residual = 0.00012650471, No Iterations 3
time step continuity errors : sum local = 1.962903e-05, global = 3.2899072e-07, cumulative = -0.00012799946
ExecutionTime = 14.708617 s  ClockTime = 15 s

Time = 110s

smoothSolver:  Solving for Ux, Initial residual = 0.001482324, Final residual = 5.3633565e-05, No Iterations 3
smoothSolver:  Solving for Uy, Initial residual = 0.0058903796, Final residual = 0.00020603327, No Iterations 3
smoothSolver:  Solving for Uz, Initial residual = 0.00094420535, Final residual = 3.425178e-05, No Iterations 3
GAMG:  Solving for p, Initial residual = 0.012875085, Final residual = 6.6824001e-05, No Iterations 4
time step continuity errors : sum local = 1.0387066e-05, global = 1.9906002e-07, cumulative = -0.0001278004
ExecutionTime = 14.840371 s  ClockTime = 15 s

Time = 111s

smoothSolver:  Solving for Ux, Initial residual = 0.0014765641, Final residual = 5.3430287e-05, No Iterations 3
smoothSolver:  Solving for Uy, Initial residual = 0.0058582245, Final residual = 0.00020497192, No Iterations 3
smoothSolver:  Solving for Uz, Initial residual = 0.00093539739, Final residual = 3.3949224e-05, No Iterations 3
GAMG:  Solving for p, Initial residual = 0.012822503, Final residual = 0.00011950224, No Iterations 3
time step continuity errors : sum local = 1.8602372e-05, global = 3.0501363e-07, cumulative = -0.00012749539
ExecutionTime = 14.964949 s  ClockTime = 15 s

Time = 112s

smoothSolver:  Solving for Ux, Initial residual = 0.0014693598, Final residual = 5.3174698e-05, No Iterations 3
smoothSolver:  Solving for Uy, Initial residual = 0.0058171134, Final residual = 0.0002035184, No Iterations 3
smoothSolver:  Solving for Uz, Initial residual = 0.00092690474, Final residual = 3.3663708e-05, No Iterations 3
GAMG:  Solving for p, Initial residual = 0.012688579, Final residual = 0.00012005742, No Iterations 3
time step continuity errors : sum local = 1.8722228e-05, global = 2.9819631e-07, cumulative = -0.00012719719
ExecutionTime = 15.092037 s  ClockTime = 15 s

Time = 113s

smoothSolver:  Solving for Ux, Initial residual = 0.0014622586, Final residual = 5.2920474e-05, No Iterations 3
smoothSolver:  Solving for Uy, Initial residual = 0.005775969, Final residual = 0.00020204049, No Iterations 3
smoothSolver:  Solving for Uz, Initial residual = 0.00091841509, Final residual = 3.3374229e-05, No Iterations 3
GAMG:  Solving for p, Initial residual = 0.012569265, Final residual = 0.00012420196, No Iterations 3
time step continuity errors : sum local = 1.9402643e-05, global = 3.0733009e-07, cumulative = -0.00012688986
ExecutionTime = 15.21967 s  ClockTime = 15 s

Time = 114s

smoothSolver:  Solving for Ux, Initial residual = 0.0014553817, Final residual = 5.2658186e-05, No Iterations 3
smoothSolver:  Solving for Uy, Initial residual = 0.0057373611, Final residual = 0.00020063703, No Iterations 3
smoothSolver:  Solving for Uz, Initial residual = 0.00090994955, Final residual = 3.3081774e-05, No Iterations 3
GAMG:  Solving for p, Initial residual = 0.012498975, Final residual = 6.6914819e-05, No Iterations 4
time step continuity errors : sum local = 1.0471154e-05, global = 1.8728767e-07, cumulative = -0.00012670257
ExecutionTime = 15.351984 s  ClockTime = 16 s

Time = 115s

smoothSolver:  Solving for Ux, Initial residual = 0.0014493095, Final residual = 5.2409419e-05, No Iterations 3
smoothSolver:  Solving for Uy, Initial residual = 0.005708782, Final residual = 0.00019958903, No Iterations 3
smoothSolver:  Solving for Uz, Initial residual = 0.00090152651, Final residual = 3.2781382e-05, No Iterations 3
GAMG:  Solving for p, Initial residual = 0.012487314, Final residual = 0.00011816918, No Iterations 3
time step continuity errors : sum local = 1.8516953e-05, global = 2.9255384e-07, cumulative = -0.00012641002
ExecutionTime = 15.477568 s  ClockTime = 16 s

Time = 116s

smoothSolver:  Solving for Ux, Initial residual = 0.001442038, Final residual = 5.2133219e-05, No Iterations 3
smoothSolver:  Solving for Uy, Initial residual = 0.0056744964, Final residual = 0.00019839052, No Iterations 3
smoothSolver:  Solving for Uz, Initial residual = 0.00089357155, Final residual = 3.2506082e-05, No Iterations 3
GAMG:  Solving for p, Initial residual = 0.012428732, Final residual = 0.00011817423, No Iterations 3
time step continuity errors : sum local = 1.8549951e-05, global = 2.9697536e-07, cumulative = -0.00012611304
ExecutionTime = 15.60358 s  ClockTime = 16 s

Time = 117s

smoothSolver:  Solving for Ux, Initial residual = 0.0014349478, Final residual = 5.185815e-05, No Iterations 3
smoothSolver:  Solving for Uy, Initial residual = 0.0056431747, Final residual = 0.00019730447, No Iterations 3
smoothSolver:  Solving for Uz, Initial residual = 0.00088571377, Final residual = 3.2231381e-05, No Iterations 3
GAMG:  Solving for p, Initial residual = 0.012393112, Final residual = 0.00012116662, No Iterations 3
time step continuity errors : sum local = 1.9052311e-05, global = 3.2043829e-07, cumulative = -0.0001257926
ExecutionTime = 15.729447 s  ClockTime = 16 s

Time = 118s

smoothSolver:  Solving for Ux, Initial residual = 0.0014282026, Final residual = 5.1597413e-05, No Iterations 3
smoothSolver:  Solving for Uy, Initial residual = 0.0056121746, Final residual = 0.0001962315, No Iterations 3
smoothSolver:  Solving for Uz, Initial residual = 0.00087790458, Final residual = 3.195632e-05, No Iterations 3
GAMG:  Solving for p, Initial residual = 0.01234184, Final residual = 6.4867359e-05, No Iterations 4
time step continuity errors : sum local = 1.0216767e-05, global = 1.956423e-07, cumulative = -0.00012559696
ExecutionTime = 15.860097 s  ClockTime = 16 s

Time = 119s

smoothSolver:  Solving for Ux, Initial residual = 0.0014224005, Final residual = 5.1369051e-05, No Iterations 3
smoothSolver:  Solving for Uy, Initial residual = 0.0055883887, Final residual = 0.00019544145, No Iterations 3
smoothSolver:  Solving for Uz, Initial residual = 0.00087015068, Final residual = 3.1675751e-05, No Iterations 3
GAMG:  Solving for p, Initial residual = 0.012302749, Final residual = 0.00011345584, No Iterations 3
time step continuity errors : sum local = 1.7892787e-05, global = 3.0478506e-07, cumulative = -0.00012529218
ExecutionTime = 15.984426 s  ClockTime = 16 s

Time = 120s

smoothSolver:  Solving for Ux, Initial residual = 0.0014153707, Final residual = 5.1105572e-05, No Iterations 3
smoothSolver:  Solving for Uy, Initial residual = 0.0055536895, Final residual = 0.0001942592, No Iterations 3
smoothSolver:  Solving for Uz, Initial residual = 0.0008625477, Final residual = 3.1408424e-05, No Iterations 3
GAMG:  Solving for p, Initial residual = 0.01221403, Final residual = 0.00011322436, No Iterations 3
time step continuity errors : sum local = 1.7886169e-05, global = 3.0312782e-07, cumulative = -0.00012498905
ExecutionTime = 16.108341 s  ClockTime = 16 s

Time = 121s

smoothSolver:  Solving for Ux, Initial residual = 0.0014085189, Final residual = 5.0844701e-05, No Iterations 3
smoothSolver:  Solving for Uy, Initial residual = 0.0055213269, Final residual = 0.00019308879, No Iterations 3
smoothSolver:  Solving for Uz, Initial residual = 0.00085502612, Final residual = 3.114026e-05, No Iterations 3
GAMG:  Solving for p, Initial residual = 0.012141399, Final residual = 0.00011629167, No Iterations 3
time step continuity errors : sum local = 1.8401069e-05, global = 3.1681088e-07, cumulative = -0.00012467224
ExecutionTime = 16.234068 s  ClockTime = 16 s

Time = 122s

smoothSolver:  Solving for Ux, Initial residual = 0.0014019415, Final residual = 5.0593864e-05, No Iterations 3
smoothSolver:  Solving for Uy, Initial residual = 0.0054915124, Final residual = 0.00019203111, No Iterations 3
smoothSolver:  Solving for Uz, Initial residual = 0.00084758706, Final residual = 3.0872007e-05, No Iterations 3
GAMG:  Solving for p, Initial residual = 0.012082975, Final residual = 0.00012031606, No Iterations 3
time step continuity errors : sum local = 1.9068532e-05, global = 3.3733306e-07, cumulative = -0.00012433491
ExecutionTime = 16.358357 s  ClockTime = 17 s

Time = 123s

smoothSolver:  Solving for Ux, Initial residual = 0.0013955825, Final residual = 5.0348653e-05, No Iterations 3
smoothSolver:  Solving for Uy, Initial residual = 0.0054642123, Final residual = 0.00019112233, No Iterations 3
smoothSolver:  Solving for Uz, Initial residual = 0.00084024041, Final residual = 3.06038e-05, No Iterations 3
GAMG:  Solving for p, Initial residual = 0.012040927, Final residual = 6.5061031e-05, No Iterations 4
time step continuity errors : sum local = 1.0327205e-05, global = 1.9280449e-07, cumulative = -0.0001241421
ExecutionTime = 16.492125 s  ClockTime = 17 s

Time = 124s

smoothSolver:  Solving for Ux, Initial residual = 0.0013898253, Final residual = 5.0119431e-05, No Iterations 3
smoothSolver:  Solving for Uy, Initial residual = 0.0054442496, Final residual = 0.000190525, No Iterations 3
smoothSolver:  Solving for Uz, Initial residual = 0.00083298917, Final residual = 3.0332324e-05, No Iterations 3
GAMG:  Solving for p, Initial residual = 0.011985119, Final residual = 0.00010985265, No Iterations 3
time step continuity errors : sum local = 1.7456268e-05, global = 3.0419764e-07, cumulative = -0.0001238379
ExecutionTime = 16.617238 s  ClockTime = 17 s

Time = 125s

smoothSolver:  Solving for Ux, Initial residual = 0.0013829221, Final residual = 4.9866275e-05, No Iterations 3
smoothSolver:  Solving for Uy, Initial residual = 0.0054148135, Final residual = 0.00018966204, No Iterations 3
smoothSolver:  Solving for Uz, Initial residual = 0.00082595513, Final residual = 3.007822e-05, No Iterations 3
GAMG:  Solving for p, Initial residual = 0.011871897, Final residual = 0.00010889996, No Iterations 3
time step continuity errors : sum local = 1.7332209e-05, global = 2.9691018e-07, cumulative = -0.00012354099
ExecutionTime = 16.750068 s  ClockTime = 17 s

Time = 126s

smoothSolver:  Solving for Ux, Initial residual = 0.0013762848, Final residual = 4.9619602e-05, No Iterations 3
smoothSolver:  Solving for Uy, Initial residual = 0.0053875543, Final residual = 0.00018891587, No Iterations 3
smoothSolver:  Solving for Uz, Initial residual = 0.00081905525, Final residual = 2.9829217e-05, No Iterations 3
GAMG:  Solving for p, Initial residual = 0.011764894, Final residual = 0.00011270802, No Iterations 3
time step continuity errors : sum local = 1.796612e-05, global = 3.0592202e-07, cumulative = -0.00012323507
ExecutionTime = 16.874371 s  ClockTime = 17 s

Time = 127s

smoothSolver:  Solving for Ux, Initial residual = 0.0013700243, Final residual = 4.9387617e-05, No Iterations 3
smoothSolver:  Solving for Uy, Initial residual = 0.005363378, Final residual = 0.0001882565, No Iterations 3
smoothSolver:  Solving for Uz, Initial residual = 0.0008121866, Final residual = 2.9580142e-05, No Iterations 3
GAMG:  Solving for p, Initial residual = 0.011692565, Final residual = 6.2546062e-05, No Iterations 4
time step continuity errors : sum local = 9.9848446e-06, global = 1.8717124e-07, cumulative = -0.0001230479
ExecutionTime = 17.006518 s  ClockTime = 17 s

Time = 128s

smoothSolver:  Solving for Ux, Initial residual = 0.0013646783, Final residual = 4.9174654e-05, No Iterations 3
smoothSolver:  Solving for Uy, Initial residual = 0.0053492241, Final residual = 0.00018795311, No Iterations 3
smoothSolver:  Solving for Uz, Initial residual = 0.00080534794, Final residual = 2.9324769e-05, No Iterations 3
GAMG:  Solving for p, Initial residual = 0.011669743, Final residual = 0.00010992421, No Iterations 3
time step continuity errors : sum local = 1.7567459e-05, global = 2.9106176e-07, cumulative = -0.00012275684
ExecutionTime = 17.131753 s  ClockTime = 17 s

Time = 129s

smoothSolver:  Solving for Ux, Initial residual = 0.0013583153, Final residual = 4.8934583e-05, No Iterations 3
smoothSolver:  Solving for Uy, Initial residual = 0.0053248985, Final residual = 0.00018734939, No Iterations 3
smoothSolver:  Solving for Uz, Initial residual = 0.00079862081, Final residual = 2.9081921e-05, No Iterations 3
GAMG:  Solving for p, Initial residual = 0.011587825, Final residual = 0.00011155029, No Iterations 3
time step continuity errors : sum local = 1.7853606e-05, global = 2.9937945e-07, cumulative = -0.00012245746
ExecutionTime = 17.257067 s  ClockTime = 18 s

Time = 130s

smoothSolver:  Solving for Ux, Initial residual = 0.0013522344, Final residual = 4.8698541e-05, No Iterations 3
smoothSolver:  Solving for Uy, Initial residual = 0.0053024579, Final residual = 0.00018681031, No Iterations 3
smoothSolver:  Solving for Uz, Initial residual = 0.00079200621, Final residual = 2.8840735e-05, No Iterations 3
[...]
GAMG:  Solving for p, Initial residual = 1.5494984e-05, Final residual = 8.4053641e-08, No Iterations 3
time step continuity errors : sum local = 1.5877849e-08, global = -1.8857161e-09, cumulative = -7.8866424e-05
ExecutionTime = 111.24146 s  ClockTime = 113 s

Time = 875s

smoothSolver:  Solving for Ux, Initial residual = 1.9514459e-06, Final residual = 7.4512185e-08, No Iterations 3
smoothSolver:  Solving for Uy, Initial residual = 7.0303428e-06, Final residual = 2.7052357e-07, No Iterations 3
smoothSolver:  Solving for Uz, Initial residual = 5.010857e-07, Final residual = 1.858958e-08, No Iterations 3
GAMG:  Solving for p, Initial residual = 1.5284443e-05, Final residual = 8.3114257e-08, No Iterations 3
time step continuity errors : sum local = 1.5700383e-08, global = -1.8668036e-09, cumulative = -7.8868291e-05
ExecutionTime = 111.36668 s  ClockTime = 113 s

Time = 876s

smoothSolver:  Solving for Ux, Initial residual = 1.9231269e-06, Final residual = 7.3469039e-08, No Iterations 3
smoothSolver:  Solving for Uy, Initial residual = 6.9373067e-06, Final residual = 2.6689794e-07, No Iterations 3
smoothSolver:  Solving for Uz, Initial residual = 4.9424488e-07, Final residual = 1.8366442e-08, No Iterations 3
GAMG:  Solving for p, Initial residual = 1.5077146e-05, Final residual = 8.2220475e-08, No Iterations 3
time step continuity errors : sum local = 1.5531533e-08, global = -1.8447214e-09, cumulative = -7.8870136e-05
ExecutionTime = 111.49145 s  ClockTime = 113 s

Time = 877s

smoothSolver:  Solving for Ux, Initial residual = 1.8950527e-06, Final residual = 7.241882e-08, No Iterations 3
smoothSolver:  Solving for Uy, Initial residual = 6.8460775e-06, Final residual = 2.6341443e-07, No Iterations 3
smoothSolver:  Solving for Uz, Initial residual = 4.8753071e-07, Final residual = 1.814551e-08, No Iterations 3
GAMG:  Solving for p, Initial residual = 1.4872862e-05, Final residual = 8.1322445e-08, No Iterations 3
time step continuity errors : sum local = 1.536188e-08, global = -1.8165204e-09, cumulative = -7.8871952e-05
ExecutionTime = 111.61621 s  ClockTime = 113 s

Time = 878s

smoothSolver:  Solving for Ux, Initial residual = 1.8672071e-06, Final residual = 7.136665e-08, No Iterations 3
smoothSolver:  Solving for Uy, Initial residual = 6.75693e-06, Final residual = 2.6003276e-07, No Iterations 3
smoothSolver:  Solving for Uz, Initial residual = 4.8089798e-07, Final residual = 1.7924262e-08, No Iterations 3
GAMG:  Solving for p, Initial residual = 1.4670999e-05, Final residual = 8.0429802e-08, No Iterations 3
time step continuity errors : sum local = 1.5193246e-08, global = -1.7841239e-09, cumulative = -7.8873736e-05
ExecutionTime = 111.74273 s  ClockTime = 113 s

Time = 879s

smoothSolver:  Solving for Ux, Initial residual = 1.8398343e-06, Final residual = 7.0306388e-08, No Iterations 3
smoothSolver:  Solving for Uy, Initial residual = 6.6693297e-06, Final residual = 2.567793e-07, No Iterations 3
smoothSolver:  Solving for Uz, Initial residual = 4.7437107e-07, Final residual = 1.7704578e-08, No Iterations 3
GAMG:  Solving for p, Initial residual = 1.4473993e-05, Final residual = 7.9548459e-08, No Iterations 3
time step continuity errors : sum local = 1.5026747e-08, global = -1.7463112e-09, cumulative = -7.8875483e-05
ExecutionTime = 111.86858 s  ClockTime = 113 s

Time = 880s

smoothSolver:  Solving for Ux, Initial residual = 1.8125512e-06, Final residual = 6.9246207e-08, No Iterations 3
smoothSolver:  Solving for Uy, Initial residual = 6.5835715e-06, Final residual = 2.53609e-07, No Iterations 3
smoothSolver:  Solving for Uz, Initial residual = 4.6794794e-07, Final residual = 1.7485071e-08, No Iterations 3
GAMG:  Solving for p, Initial residual = 1.4281687e-05, Final residual = 7.869009e-08, No Iterations 3
time step continuity errors : sum local = 1.4864587e-08, global = -1.7031017e-09, cumulative = -7.8877186e-05
ExecutionTime = 111.99423 s  ClockTime = 113 s

Time = 881s

smoothSolver:  Solving for Ux, Initial residual = 1.7854166e-06, Final residual = 6.8194458e-08, No Iterations 3
smoothSolver:  Solving for Uy, Initial residual = 6.4990191e-06, Final residual = 2.5050776e-07, No Iterations 3
smoothSolver:  Solving for Uz, Initial residual = 4.6156164e-07, Final residual = 1.7263841e-08, No Iterations 3
GAMG:  Solving for p, Initial residual = 1.4091348e-05, Final residual = 7.785294e-08, No Iterations 3
time step continuity errors : sum local = 1.4706437e-08, global = -1.6545109e-09, cumulative = -7.887884e-05
ExecutionTime = 112.12075 s  ClockTime = 113 s

Time = 882s

smoothSolver:  Solving for Ux, Initial residual = 1.75827e-06, Final residual = 6.7151271e-08, No Iterations 3
smoothSolver:  Solving for Uy, Initial residual = 6.416522e-06, Final residual = 2.4752288e-07, No Iterations 3
smoothSolver:  Solving for Uz, Initial residual = 4.5521284e-07, Final residual = 1.7041206e-08, No Iterations 3
GAMG:  Solving for p, Initial residual = 1.390507e-05, Final residual = 7.7020386e-08, No Iterations 3
time step continuity errors : sum local = 1.4549155e-08, global = -1.6004822e-09, cumulative = -7.8880441e-05
ExecutionTime = 112.24634 s  ClockTime = 114 s

Time = 883s

smoothSolver:  Solving for Ux, Initial residual = 1.7310968e-06, Final residual = 6.6112704e-08, No Iterations 3
smoothSolver:  Solving for Uy, Initial residual = 6.3364091e-06, Final residual = 2.4461515e-07, No Iterations 3
smoothSolver:  Solving for Uz, Initial residual = 4.4887593e-07, Final residual = 1.6816838e-08, No Iterations 3
GAMG:  Solving for p, Initial residual = 1.3722806e-05, Final residual = 7.6186551e-08, No Iterations 3
time step continuity errors : sum local = 1.4391631e-08, global = -1.5408024e-09, cumulative = -7.8881982e-05
ExecutionTime = 112.37182 s  ClockTime = 114 s

Time = 884s

smoothSolver:  Solving for Ux, Initial residual = 1.7040986e-06, Final residual = 6.5083486e-08, No Iterations 3
smoothSolver:  Solving for Uy, Initial residual = 6.2577858e-06, Final residual = 2.417639e-07, No Iterations 3
smoothSolver:  Solving for Uz, Initial residual = 4.425553e-07, Final residual = 1.6591527e-08, No Iterations 3
GAMG:  Solving for p, Initial residual = 1.354257e-05, Final residual = 7.5352524e-08, No Iterations 3
time step continuity errors : sum local = 1.4234071e-08, global = -1.4750865e-09, cumulative = -7.8883457e-05
ExecutionTime = 112.49652 s  ClockTime = 114 s

Time = 885s

smoothSolver:  Solving for Ux, Initial residual = 1.6774999e-06, Final residual = 6.4068615e-08, No Iterations 3
smoothSolver:  Solving for Uy, Initial residual = 6.1803651e-06, Final residual = 2.389611e-07, No Iterations 3
smoothSolver:  Solving for Uz, Initial residual = 4.3627282e-07, Final residual = 1.6363765e-08, No Iterations 3
GAMG:  Solving for p, Initial residual = 1.3363266e-05, Final residual = 7.4553377e-08, No Iterations 3
time step continuity errors : sum local = 1.40831e-08, global = -1.4028339e-09, cumulative = -7.888486e-05
ExecutionTime = 112.62101 s  ClockTime = 114 s

Time = 886s

smoothSolver:  Solving for Ux, Initial residual = 1.6511669e-06, Final residual = 6.3066509e-08, No Iterations 3
smoothSolver:  Solving for Uy, Initial residual = 6.1042135e-06, Final residual = 2.3620171e-07, No Iterations 3
smoothSolver:  Solving for Uz, Initial residual = 4.2998601e-07, Final residual = 1.613561e-08, No Iterations 3
GAMG:  Solving for p, Initial residual = 1.3185337e-05, Final residual = 7.3816544e-08, No Iterations 3
time step continuity errors : sum local = 1.39439e-08, global = -1.3235947e-09, cumulative = -7.8886183e-05
ExecutionTime = 112.74804 s  ClockTime = 114 s

Time = 887s

smoothSolver:  Solving for Ux, Initial residual = 1.6250183e-06, Final residual = 6.2067803e-08, No Iterations 3
smoothSolver:  Solving for Uy, Initial residual = 6.0294288e-06, Final residual = 2.3343136e-07, No Iterations 3
smoothSolver:  Solving for Uz, Initial residual = 4.2371093e-07, Final residual = 1.5905806e-08, No Iterations 3
GAMG:  Solving for p, Initial residual = 1.3009664e-05, Final residual = 7.3108413e-08, No Iterations 3
time step continuity errors : sum local = 1.3810123e-08, global = -1.236795e-09, cumulative = -7.888742e-05
ExecutionTime = 112.87263 s  ClockTime = 114 s

Time = 888s

smoothSolver:  Solving for Ux, Initial residual = 1.5990622e-06, Final residual = 6.107864e-08, No Iterations 3
smoothSolver:  Solving for Uy, Initial residual = 5.955825e-06, Final residual = 2.3067874e-07, No Iterations 3
smoothSolver:  Solving for Uz, Initial residual = 4.1741289e-07, Final residual = 1.5673876e-08, No Iterations 3
GAMG:  Solving for p, Initial residual = 1.2833556e-05, Final residual = 7.2407535e-08, No Iterations 3
time step continuity errors : sum local = 1.3677716e-08, global = -1.1423591e-09, cumulative = -7.8888562e-05
ExecutionTime = 112.9987 s  ClockTime = 114 s

Time = 889s

smoothSolver:  Solving for Ux, Initial residual = 1.5733101e-06, Final residual = 6.0089271e-08, No Iterations 3
smoothSolver:  Solving for Uy, Initial residual = 5.8833474e-06, Final residual = 2.2792423e-07, No Iterations 3
smoothSolver:  Solving for Uz, Initial residual = 4.1110055e-07, Final residual = 1.5439584e-08, No Iterations 3
GAMG:  Solving for p, Initial residual = 1.2657665e-05, Final residual = 7.1723403e-08, No Iterations 3
time step continuity errors : sum local = 1.3548472e-08, global = -1.0408989e-09, cumulative = -7.8889603e-05
ExecutionTime = 113.12376 s  ClockTime = 115 s

Time = 890s

smoothSolver:  Solving for Ux, Initial residual = 1.5477672e-06, Final residual = 5.9104825e-08, No Iterations 3
smoothSolver:  Solving for Uy, Initial residual = 5.8116312e-06, Final residual = 2.2515104e-07, No Iterations 3
smoothSolver:  Solving for Uz, Initial residual = 4.0478179e-07, Final residual = 1.5204775e-08, No Iterations 3
GAMG:  Solving for p, Initial residual = 1.2483431e-05, Final residual = 7.1042924e-08, No Iterations 3
time step continuity errors : sum local = 1.3419919e-08, global = -9.3205635e-10, cumulative = -7.8890535e-05
ExecutionTime = 113.25229 s  ClockTime = 115 s

Time = 891s

smoothSolver:  Solving for Ux, Initial residual = 1.5223379e-06, Final residual = 5.8131152e-08, No Iterations 3
smoothSolver:  Solving for Uy, Initial residual = 5.7406063e-06, Final residual = 2.2237997e-07, No Iterations 3
smoothSolver:  Solving for Uz, Initial residual = 3.9846563e-07, Final residual = 1.4969565e-08, No Iterations 3
GAMG:  Solving for p, Initial residual = 1.2310953e-05, Final residual = 7.0358544e-08, No Iterations 3
time step continuity errors : sum local = 1.3290628e-08, global = -8.1709409e-10, cumulative = -7.8891352e-05
ExecutionTime = 113.37728 s  ClockTime = 115 s

Time = 892s

smoothSolver:  Solving for Ux, Initial residual = 1.4972088e-06, Final residual = 5.7177338e-08, No Iterations 3
smoothSolver:  Solving for Uy, Initial residual = 5.670363e-06, Final residual = 2.1960652e-07, No Iterations 3
smoothSolver:  Solving for Uz, Initial residual = 3.921647e-07, Final residual = 1.4734904e-08, No Iterations 3
GAMG:  Solving for p, Initial residual = 1.214129e-05, Final residual = 6.9654315e-08, No Iterations 3
time step continuity errors : sum local = 1.3157589e-08, global = -6.9732441e-10, cumulative = -7.889205e-05
ExecutionTime = 113.50365 s  ClockTime = 115 s

Time = 893s

smoothSolver:  Solving for Ux, Initial residual = 1.4723282e-06, Final residual = 5.6237381e-08, No Iterations 3
smoothSolver:  Solving for Uy, Initial residual = 5.600812e-06, Final residual = 2.1683706e-07, No Iterations 3
smoothSolver:  Solving for Uz, Initial residual = 3.8587231e-07, Final residual = 1.4501647e-08, No Iterations 3
GAMG:  Solving for p, Initial residual = 1.1973176e-05, Final residual = 6.8940438e-08, No Iterations 3
time step continuity errors : sum local = 1.3022728e-08, global = -5.7464773e-10, cumulative = -7.8892624e-05
ExecutionTime = 113.62871 s  ClockTime = 115 s

Time = 894s

smoothSolver:  Solving for Ux, Initial residual = 1.4477022e-06, Final residual = 5.5313376e-08, No Iterations 3
smoothSolver:  Solving for Uy, Initial residual = 5.5316456e-06, Final residual = 2.1405637e-07, No Iterations 3
smoothSolver:  Solving for Uz, Initial residual = 3.7961173e-07, Final residual = 1.4268169e-08, No Iterations 3
GAMG:  Solving for p, Initial residual = 1.1804358e-05, Final residual = 6.8263323e-08, No Iterations 3
time step continuity errors : sum local = 1.2894811e-08, global = -4.5320615e-10, cumulative = -7.8893078e-05
ExecutionTime = 113.75457 s  ClockTime = 115 s

Time = 895s

smoothSolver:  Solving for Ux, Initial residual = 1.4232904e-06, Final residual = 5.440603e-08, No Iterations 3
smoothSolver:  Solving for Uy, Initial residual = 5.4631313e-06, Final residual = 2.1130638e-07, No Iterations 3
smoothSolver:  Solving for Uz, Initial residual = 3.7336637e-07, Final residual = 1.4035706e-08, No Iterations 3
GAMG:  Solving for p, Initial residual = 1.1635429e-05, Final residual = 6.75141e-08, No Iterations 3
time step continuity errors : sum local = 1.2753273e-08, global = -3.3573447e-10, cumulative = -7.8893413e-05
ExecutionTime = 113.87951 s  ClockTime = 115 s

Time = 896s

smoothSolver:  Solving for Ux, Initial residual = 1.3991702e-06, Final residual = 5.3506391e-08, No Iterations 3
smoothSolver:  Solving for Uy, Initial residual = 5.3950119e-06, Final residual = 2.0855095e-07, No Iterations 3
smoothSolver:  Solving for Uz, Initial residual = 3.6717539e-07, Final residual = 1.3801705e-08, No Iterations 3
GAMG:  Solving for p, Initial residual = 1.1467557e-05, Final residual = 6.6758449e-08, No Iterations 3
time step continuity errors : sum local = 1.2610521e-08, global = -2.2549291e-10, cumulative = -7.8893639e-05
ExecutionTime = 114.0046 s  ClockTime = 115 s

Time = 897s

smoothSolver:  Solving for Ux, Initial residual = 1.3754144e-06, Final residual = 5.2612317e-08, No Iterations 3
smoothSolver:  Solving for Uy, Initial residual = 5.3275281e-06, Final residual = 2.0583144e-07, No Iterations 3
smoothSolver:  Solving for Uz, Initial residual = 3.6106831e-07, Final residual = 1.3569102e-08, No Iterations 3
GAMG:  Solving for p, Initial residual = 1.1301975e-05, Final residual = 6.5986211e-08, No Iterations 3
time step continuity errors : sum local = 1.2464636e-08, global = -1.2201537e-10, cumulative = -7.8893761e-05
ExecutionTime = 114.12995 s  ClockTime = 116 s

Time = 898s

smoothSolver:  Solving for Ux, Initial residual = 1.3519827e-06, Final residual = 5.1733358e-08, No Iterations 3
smoothSolver:  Solving for Uy, Initial residual = 5.2605566e-06, Final residual = 2.0314573e-07, No Iterations 3
smoothSolver:  Solving for Uz, Initial residual = 3.5501521e-07, Final residual = 1.3339038e-08, No Iterations 3
GAMG:  Solving for p, Initial residual = 1.1138577e-05, Final residual = 6.5225413e-08, No Iterations 3
time step continuity errors : sum local = 1.2320912e-08, global = -1.9321977e-11, cumulative = -7.889378e-05
ExecutionTime = 114.25409 s  ClockTime = 116 s

Time = 899s

smoothSolver:  Solving for Ux, Initial residual = 1.3288414e-06, Final residual = 5.0853754e-08, No Iterations 3
smoothSolver:  Solving for Uy, Initial residual = 5.1943111e-06, Final residual = 2.0050367e-07, No Iterations 3
smoothSolver:  Solving for Uz, Initial residual = 3.4901772e-07, Final residual = 1.3109899e-08, No Iterations 3
GAMG:  Solving for p, Initial residual = 1.0978274e-05, Final residual = 6.4513594e-08, No Iterations 3
time step continuity errors : sum local = 1.2186441e-08, global = 7.2890467e-11, cumulative = -7.8893707e-05
ExecutionTime = 114.37766 s  ClockTime = 116 s

Time = 900s

smoothSolver:  Solving for Ux, Initial residual = 1.3058798e-06, Final residual = 4.9981037e-08, No Iterations 3
smoothSolver:  Solving for Uy, Initial residual = 5.1284189e-06, Final residual = 1.9793002e-07, No Iterations 3
smoothSolver:  Solving for Uz, Initial residual = 3.4305372e-07, Final residual = 1.2882097e-08, No Iterations 3
GAMG:  Solving for p, Initial residual = 1.0821184e-05, Final residual = 6.3778552e-08, No Iterations 3
time step continuity errors : sum local = 1.2047583e-08, global = 1.6177138e-10, cumulative = -7.8893546e-05
ExecutionTime = 114.50256 s  ClockTime = 116 s

Time = 901s

smoothSolver:  Solving for Ux, Initial residual = 1.2831783e-06, Final residual = 4.9117589e-08, No Iterations 3
smoothSolver:  Solving for Uy, Initial residual = 5.0633365e-06, Final residual = 1.9536737e-07, No Iterations 3
smoothSolver:  Solving for Uz, Initial residual = 3.3716338e-07, Final residual = 1.2656454e-08, No Iterations 3
GAMG:  Solving for p, Initial residual = 1.0666399e-05, Final residual = 6.3040783e-08, No Iterations 3
time step continuity errors : sum local = 1.1908211e-08, global = 2.464945e-10, cumulative = -7.8893299e-05
ExecutionTime = 114.62519 s  ClockTime = 116 s

Time = 902s

smoothSolver:  Solving for Ux, Initial residual = 1.2607028e-06, Final residual = 4.8266209e-08, No Iterations 3
smoothSolver:  Solving for Uy, Initial residual = 4.9986924e-06, Final residual = 1.9283566e-07, No Iterations 3
smoothSolver:  Solving for Uz, Initial residual = 3.3136423e-07, Final residual = 1.2433412e-08, No Iterations 3
GAMG:  Solving for p, Initial residual = 1.0514532e-05, Final residual = 6.2296348e-08, No Iterations 3
time step continuity errors : sum local = 1.176758e-08, global = 3.2117389e-10, cumulative = -7.8892978e-05
ExecutionTime = 114.7507 s  ClockTime = 116 s

Time = 903s

smoothSolver:  Solving for Ux, Initial residual = 1.2384179e-06, Final residual = 4.7416918e-08, No Iterations 3
smoothSolver:  Solving for Uy, Initial residual = 4.934718e-06, Final residual = 1.9036497e-07, No Iterations 3
smoothSolver:  Solving for Uz, Initial residual = 3.2566725e-07, Final residual = 1.2212815e-08, No Iterations 3
GAMG:  Solving for p, Initial residual = 1.0364269e-05, Final residual = 6.1382097e-08, No Iterations 3
time step continuity errors : sum local = 1.1594871e-08, global = 3.8652932e-10, cumulative = -7.8892591e-05
ExecutionTime = 114.87582 s  ClockTime = 116 s

Time = 904s

smoothSolver:  Solving for Ux, Initial residual = 1.2167015e-06, Final residual = 4.6571812e-08, No Iterations 3
smoothSolver:  Solving for Uy, Initial residual = 4.87209e-06, Final residual = 1.8793902e-07, No Iterations 3
smoothSolver:  Solving for Uz, Initial residual = 3.20036e-07, Final residual = 1.1994108e-08, No Iterations 3
GAMG:  Solving for p, Initial residual = 1.0214008e-05, Final residual = 6.0634951e-08, No Iterations 3
time step continuity errors : sum local = 1.1453729e-08, global = 4.3381069e-10, cumulative = -7.8892157e-05
ExecutionTime = 115.00115 s  ClockTime = 116 s

Time = 905s

smoothSolver:  Solving for Ux, Initial residual = 1.1954252e-06, Final residual = 4.5734264e-08, No Iterations 3
smoothSolver:  Solving for Uy, Initial residual = 4.8105032e-06, Final residual = 1.8554825e-07, No Iterations 3
smoothSolver:  Solving for Uz, Initial residual = 3.1448605e-07, Final residual = 1.1777683e-08, No Iterations 3
GAMG:  Solving for p, Initial residual = 1.0064448e-05, Final residual = 5.9970175e-08, No Iterations 3
time step continuity errors : sum local = 1.1328146e-08, global = 4.6835751e-10, cumulative = -7.8891689e-05
ExecutionTime = 115.12635 s  ClockTime = 117 s

Time = 906s

smoothSolver:  Solving for Ux, Initial residual = 1.1743869e-06, Final residual = 4.4901837e-08, No Iterations 3
smoothSolver:  Solving for Uy, Initial residual = 4.750037e-06, Final residual = 1.8317007e-07, No Iterations 3
smoothSolver:  Solving for Uz, Initial residual = 3.0901964e-07, Final residual = 1.1563339e-08, No Iterations 3
GAMG:  Solving for p, Initial residual = 9.9180041e-06, Final residual = 5.9265218e-08, No Iterations 3
time step continuity errors : sum local = 1.1194973e-08, global = 4.8498544e-10, cumulative = -7.8891204e-05
ExecutionTime = 115.25429 s  ClockTime = 117 s


SIMPLE solution converged in 906 iterations

End

Finalising parallel run
