/*---------------------------------------------------------------------------*\
  =========                 |
  \\      /  F ield         | OpenFOAM: The Open Source CFD Toolbox
   \\    /   O peration     | Website:  https://openfoam.org
    \\  /    A nd           | Version:  11
     \\/     M anipulation  |
\*---------------------------------------------------------------------------*/
Build  : 11-e1fc8c682ae6
Exec   : foamRun -solver incompressibleFluid -parallel
Date   : Feb 07 2026
Time   : 18:06:45
Host   : "ip-172-31-18-192"
PID    : 119899
I/O    : uncollated
Case   : /home/ubuntu/cases/bifurcation_angle30_750_ascii/Re300
nProcs : 16
Slaves : 
15
(
"ip-172-31-18-192.119900"
"ip-172-31-18-192.119901"
"ip-172-31-18-192.119902"
"ip-172-31-18-192.119903"
"ip-172-31-18-192.119904"
"ip-172-31-18-192.119905"
"ip-172-31-18-192.119906"
"ip-172-31-18-192.119907"
"ip-172-31-18-192.119908"
"ip-172-31-18-192.119909"
"ip-172-31-18-192.119910"
"ip-172-31-18-192.119911"
"ip-172-31-18-192.119912"
"ip-172-31-18-192.119913"
"ip-172-31-18-192.119914"
)

Pstream initialised with:
    floatTransfer      : false
    nProcsSimpleSum    : 0
    commsType          : nonBlocking
    polling iterations : 0
sigFpe : Enabling floating point exception trapping (FOAM_SIGFPE).
fileModificationChecking : Monitoring run-time modified files using timeStampMaster (fileModificationSkew 10)
allowSystemOperations : Allowing user-supplied system call operations

// * * * * * * * * * * * * * * * * * * * * * * * * * * * * * * * * * * * * * //
Create time

Create mesh for time = 0

Selecting solver incompressibleFluid
Selecting viscosity model Newtonian
Selecting turbulence model type laminar
Selecting laminar stress model Stokes
No MRF models present


SIMPLE: Convergence criteria found
        p: tolerance 1e-05
        U: tolerance 1e-05


SIMPLE: Operating solver in steady-state mode with 1 outer corrector
SIMPLE: Operating solver in SIMPLE mode



Starting time loop

wallShearStress wallShearStress:
    processing wall patches: 
        wall-fluid_domain

Time = 1s

smoothSolver:  Solving for Ux, Initial residual = 1, Final residual = 0.039049747, No Iterations 1
smoothSolver:  Solving for Uy, Initial residual = 1, Final residual = 0.04689718, No Iterations 1
smoothSolver:  Solving for Uz, Initial residual = 1, Final residual = 0.014225615, No Iterations 1
GAMG:  Solving for p, Initial residual = 1, Final residual = 0.0078173646, No Iterations 10
time step continuity errors : sum local = 0.00019059137, global = -4.02265e-06, cumulative = -4.02265e-06
ExecutionTime = 0.634646 s  ClockTime = 0 s

Time = 2s

smoothSolver:  Solving for Ux, Initial residual = 0.23702282, Final residual = 0.014742468, No Iterations 2
smoothSolver:  Solving for Uy, Initial residual = 0.3522422, Final residual = 0.016847773, No Iterations 2
smoothSolver:  Solving for Uz, Initial residual = 0.23506037, Final residual = 0.015760621, No Iterations 2
GAMG:  Solving for p, Initial residual = 0.35940284, Final residual = 0.0028325682, No Iterations 6
time step continuity errors : sum local = 0.0054422127, global = -0.00026064983, cumulative = -0.00026467248
ExecutionTime = 0.82114 s  ClockTime = 1 s

Time = 3s

smoothSolver:  Solving for Ux, Initial residual = 0.23690507, Final residual = 0.0076665906, No Iterations 3
smoothSolver:  Solving for Uy, Initial residual = 0.13859258, Final residual = 0.0084958037, No Iterations 2
smoothSolver:  Solving for Uz, Initial residual = 0.47297531, Final residual = 0.016886517, No Iterations 3
GAMG:  Solving for p, Initial residual = 0.14808943, Final residual = 0.00078471402, No Iterations 3
time step continuity errors : sum local = 0.0079469527, global = 7.2985772e-05, cumulative = -0.00019168671
ExecutionTime = 1.000238 s  ClockTime = 1 s

Time = 4s

smoothSolver:  Solving for Ux, Initial residual = 0.15431947, Final residual = 0.005233592, No Iterations 3
smoothSolver:  Solving for Uy, Initial residual = 0.073608527, Final residual = 0.0045488864, No Iterations 2
smoothSolver:  Solving for Uz, Initial residual = 0.31975431, Final residual = 0.011429415, No Iterations 3
GAMG:  Solving for p, Initial residual = 0.10339528, Final residual = 0.00085155334, No Iterations 5
time step continuity errors : sum local = 0.0088230294, global = -2.3225986e-05, cumulative = -0.00021491269
ExecutionTime = 1.178672 s  ClockTime = 1 s

Time = 5s

smoothSolver:  Solving for Ux, Initial residual = 0.080135828, Final residual = 0.0079128412, No Iterations 2
smoothSolver:  Solving for Uy, Initial residual = 0.17711667, Final residual = 0.01229815, No Iterations 2
smoothSolver:  Solving for Uz, Initial residual = 0.12676493, Final residual = 0.0045361257, No Iterations 3
GAMG:  Solving for p, Initial residual = 0.0791564, Final residual = 0.00071365062, No Iterations 6
time step continuity errors : sum local = 0.0038568012, global = 0.00025104728, cumulative = 3.6134587e-05
ExecutionTime = 1.365396 s  ClockTime = 1 s

Time = 6s

smoothSolver:  Solving for Ux, Initial residual = 0.070045416, Final residual = 0.0059155153, No Iterations 2
smoothSolver:  Solving for Uy, Initial residual = 0.40261816, Final residual = 0.027273553, No Iterations 2
smoothSolver:  Solving for Uz, Initial residual = 0.0529201, Final residual = 0.0017987051, No Iterations 3
GAMG:  Solving for p, Initial residual = 0.43871637, Final residual = 0.0020527659, No Iterations 5
time step continuity errors : sum local = 0.0057075592, global = -0.00018372101, cumulative = -0.00014758642
ExecutionTime = 1.542244 s  ClockTime = 1 s

Time = 7s

smoothSolver:  Solving for Ux, Initial residual = 0.12215081, Final residual = 0.011856396, No Iterations 2
smoothSolver:  Solving for Uy, Initial residual = 0.26038569, Final residual = 0.017062873, No Iterations 2
smoothSolver:  Solving for Uz, Initial residual = 0.17707559, Final residual = 0.0063385533, No Iterations 3
GAMG:  Solving for p, Initial residual = 0.25541189, Final residual = 0.0023010684, No Iterations 3
time step continuity errors : sum local = 0.012839366, global = -0.00022490812, cumulative = -0.00037249454
ExecutionTime = 1.700581 s  ClockTime = 1 s

Time = 8s

smoothSolver:  Solving for Ux, Initial residual = 0.11226992, Final residual = 0.0036381009, No Iterations 3
smoothSolver:  Solving for Uy, Initial residual = 0.13891759, Final residual = 0.0094372571, No Iterations 2
smoothSolver:  Solving for Uz, Initial residual = 0.1960579, Final residual = 0.0070177194, No Iterations 3
GAMG:  Solving for p, Initial residual = 0.19908842, Final residual = 0.0010112045, No Iterations 5
time step continuity errors : sum local = 0.0049198374, global = 3.0002078e-05, cumulative = -0.00034249246
ExecutionTime = 1.879606 s  ClockTime = 2 s

Time = 9s

smoothSolver:  Solving for Ux, Initial residual = 0.06145583, Final residual = 0.0059128816, No Iterations 2
smoothSolver:  Solving for Uy, Initial residual = 0.24492885, Final residual = 0.019479943, No Iterations 2
smoothSolver:  Solving for Uz, Initial residual = 0.073382634, Final residual = 0.0025825426, No Iterations 3
GAMG:  Solving for p, Initial residual = 0.19712322, Final residual = 0.00089505316, No Iterations 6
time step continuity errors : sum local = 0.0017833213, global = -9.4798584e-05, cumulative = -0.00043729104
ExecutionTime = 2.067419 s  ClockTime = 2 s

Time = 10s

smoothSolver:  Solving for Ux, Initial residual = 0.063285045, Final residual = 0.0057881185, No Iterations 2
smoothSolver:  Solving for Uy, Initial residual = 0.40122668, Final residual = 0.029624256, No Iterations 2
smoothSolver:  Solving for Uz, Initial residual = 0.059592834, Final residual = 0.0021099719, No Iterations 3
GAMG:  Solving for p, Initial residual = 0.3079826, Final residual = 0.0029099679, No Iterations 4
time step continuity errors : sum local = 0.0051790578, global = -0.00014067969, cumulative = -0.00057797073
ExecutionTime = 2.233502 s  ClockTime = 2 s

Time = 11s

smoothSolver:  Solving for Ux, Initial residual = 0.069407334, Final residual = 0.0068511001, No Iterations 2
smoothSolver:  Solving for Uy, Initial residual = 0.23975968, Final residual = 0.016494284, No Iterations 2
smoothSolver:  Solving for Uz, Initial residual = 0.096305583, Final residual = 0.0034563479, No Iterations 3
GAMG:  Solving for p, Initial residual = 0.21734768, Final residual = 0.0013905197, No Iterations 4
time step continuity errors : sum local = 0.00383821, global = -6.6217422e-06, cumulative = -0.00058459247
ExecutionTime = 2.401318 s  ClockTime = 2 s

Time = 12s

smoothSolver:  Solving for Ux, Initial residual = 0.045551997, Final residual = 0.0014991779, No Iterations 3
smoothSolver:  Solving for Uy, Initial residual = 0.14948797, Final residual = 0.011703603, No Iterations 2
smoothSolver:  Solving for Uz, Initial residual = 0.067308167, Final residual = 0.0024137266, No Iterations 3
GAMG:  Solving for p, Initial residual = 0.17153426, Final residual = 0.0011637464, No Iterations 5
time step continuity errors : sum local = 0.0024721777, global = -1.6700242e-05, cumulative = -0.00060129271
ExecutionTime = 2.579932 s  ClockTime = 2 s

Time = 13s

smoothSolver:  Solving for Ux, Initial residual = 0.02258634, Final residual = 0.0020907902, No Iterations 2
smoothSolver:  Solving for Uy, Initial residual = 0.30417434, Final residual = 0.02560798, No Iterations 2
smoothSolver:  Solving for Uz, Initial residual = 0.016277637, Final residual = 0.00053286819, No Iterations 3
GAMG:  Solving for p, Initial residual = 0.25574441, Final residual = 0.0010504975, No Iterations 6
time step continuity errors : sum local = 0.00077190873, global = 4.7234866e-05, cumulative = -0.00055405785
ExecutionTime = 2.775366 s  ClockTime = 3 s

Time = 14s

smoothSolver:  Solving for Ux, Initial residual = 0.029905782, Final residual = 0.0028235679, No Iterations 2
smoothSolver:  Solving for Uy, Initial residual = 0.34378828, Final residual = 0.026816544, No Iterations 2
smoothSolver:  Solving for Uz, Initial residual = 0.031174977, Final residual = 0.0011092965, No Iterations 3
GAMG:  Solving for p, Initial residual = 0.29335739, Final residual = 0.0021061788, No Iterations 4
time step continuity errors : sum local = 0.0021315826, global = 3.9290372e-05, cumulative = -0.00051476748
ExecutionTime = 2.943352 s  ClockTime = 3 s

Time = 15s

smoothSolver:  Solving for Ux, Initial residual = 0.032574396, Final residual = 0.003239753, No Iterations 2
smoothSolver:  Solving for Uy, Initial residual = 0.19124847, Final residual = 0.013793497, No Iterations 2
smoothSolver:  Solving for Uz, Initial residual = 0.045399325, Final residual = 0.0016241849, No Iterations 3
GAMG:  Solving for p, Initial residual = 0.21832443, Final residual = 0.0016975128, No Iterations 4
time step continuity errors : sum local = 0.0021934843, global = -6.7639743e-07, cumulative = -0.00051544387
ExecutionTime = 3.109481 s  ClockTime = 3 s

Time = 16s

smoothSolver:  Solving for Ux, Initial residual = 0.022289733, Final residual = 0.00072611178, No Iterations 3
smoothSolver:  Solving for Uy, Initial residual = 0.14745948, Final residual = 0.012598419, No Iterations 2
smoothSolver:  Solving for Uz, Initial residual = 0.029974478, Final residual = 0.0010673168, No Iterations 3
GAMG:  Solving for p, Initial residual = 0.17375281, Final residual = 0.0013664671, No Iterations 5
time step continuity errors : sum local = 0.0012049778, global = 7.1781136e-06, cumulative = -0.00050826576
ExecutionTime = 3.287298 s  ClockTime = 3 s

Time = 17s

smoothSolver:  Solving for Ux, Initial residual = 0.012028414, Final residual = 0.0010481577, No Iterations 2
smoothSolver:  Solving for Uy, Initial residual = 0.28065585, Final residual = 0.02410205, No Iterations 2
smoothSolver:  Solving for Uz, Initial residual = 0.0065189139, Final residual = 0.00059171327, No Iterations 2
GAMG:  Solving for p, Initial residual = 0.46920641, Final residual = 0.0041030838, No Iterations 5
time step continuity errors : sum local = 0.00087445142, global = 1.4436661e-05, cumulative = -0.0004938291
ExecutionTime = 3.461188 s  ClockTime = 3 s

Time = 18s

smoothSolver:  Solving for Ux, Initial residual = 0.016854831, Final residual = 0.0016457219, No Iterations 2
smoothSolver:  Solving for Uy, Initial residual = 0.25557851, Final residual = 0.020415413, No Iterations 2
smoothSolver:  Solving for Uz, Initial residual = 0.018878918, Final residual = 0.00068062507, No Iterations 3
GAMG:  Solving for p, Initial residual = 0.23374166, Final residual = 0.0014392287, No Iterations 4
time step continuity errors : sum local = 0.00090505108, global = -7.9764599e-06, cumulative = -0.00050180556
ExecutionTime = 3.628164 s  ClockTime = 3 s

Time = 19s

smoothSolver:  Solving for Ux, Initial residual = 0.015285254, Final residual = 0.0004957474, No Iterations 3
smoothSolver:  Solving for Uy, Initial residual = 0.14216703, Final residual = 0.010843137, No Iterations 2
smoothSolver:  Solving for Uz, Initial residual = 0.020857702, Final residual = 0.00075304037, No Iterations 3
GAMG:  Solving for p, Initial residual = 0.18208387, Final residual = 0.0017232457, No Iterations 4
time step continuity errors : sum local = 0.001181244, global = 9.4573518e-06, cumulative = -0.00049234821
ExecutionTime = 3.797218 s  ClockTime = 4 s

Time = 20s

smoothSolver:  Solving for Ux, Initial residual = 0.0097285172, Final residual = 0.00032536813, No Iterations 3
smoothSolver:  Solving for Uy, Initial residual = 0.13460493, Final residual = 0.012237856, No Iterations 2
smoothSolver:  Solving for Uz, Initial residual = 0.011211249, Final residual = 0.00040337193, No Iterations 3
GAMG:  Solving for p, Initial residual = 0.13662076, Final residual = 0.0012628434, No Iterations 5
time step continuity errors : sum local = 0.00057068799, global = -7.4195813e-06, cumulative = -0.00049976779
ExecutionTime = 3.977247 s  ClockTime = 4 s

Time = 21s

smoothSolver:  Solving for Ux, Initial residual = 0.0064501117, Final residual = 0.00058431719, No Iterations 2
smoothSolver:  Solving for Uy, Initial residual = 0.19905029, Final residual = 0.017452455, No Iterations 2
smoothSolver:  Solving for Uz, Initial residual = 0.0037906397, Final residual = 0.00036426788, No Iterations 2
GAMG:  Solving for p, Initial residual = 0.356003, Final residual = 0.0023449241, No Iterations 5
time step continuity errors : sum local = 0.00036047981, global = -6.9913543e-06, cumulative = -0.00050675914
ExecutionTime = 4.150244 s  ClockTime = 4 s

Time = 22s

smoothSolver:  Solving for Ux, Initial residual = 0.0080289927, Final residual = 0.00077524898, No Iterations 2
smoothSolver:  Solving for Uy, Initial residual = 0.15937002, Final residual = 0.013080507, No Iterations 2
smoothSolver:  Solving for Uz, Initial residual = 0.0094906564, Final residual = 0.00033540563, No Iterations 3
GAMG:  Solving for p, Initial residual = 0.2194888, Final residual = 0.001140217, No Iterations 4
time step continuity errors : sum local = 0.00037664264, global = 3.297106e-06, cumulative = -0.00050346204
ExecutionTime = 4.316394 s  ClockTime = 4 s

Time = 23s

smoothSolver:  Solving for Ux, Initial residual = 0.0066742209, Final residual = 0.00020874283, No Iterations 3
smoothSolver:  Solving for Uy, Initial residual = 0.089616804, Final residual = 0.0072582013, No Iterations 2
smoothSolver:  Solving for Uz, Initial residual = 0.0092909781, Final residual = 0.00032858056, No Iterations 3
GAMG:  Solving for p, Initial residual = 0.17276354, Final residual = 0.00079638591, No Iterations 5
time step continuity errors : sum local = 0.00025643463, global = -2.4678374e-07, cumulative = -0.00050370882
ExecutionTime = 4.494263 s  ClockTime = 4 s

Time = 24s

smoothSolver:  Solving for Ux, Initial residual = 0.0042194512, Final residual = 0.00041613501, No Iterations 2
smoothSolver:  Solving for Uy, Initial residual = 0.097428431, Final residual = 0.009042036, No Iterations 2
smoothSolver:  Solving for Uz, Initial residual = 0.0040900208, Final residual = 0.00013898531, No Iterations 3
GAMG:  Solving for p, Initial residual = 0.14219019, Final residual = 0.0013760314, No Iterations 5
time step continuity errors : sum local = 0.00026051843, global = 3.6955467e-06, cumulative = -0.00050001327
ExecutionTime = 4.672136 s  ClockTime = 5 s

Time = 25s

smoothSolver:  Solving for Ux, Initial residual = 0.0042735715, Final residual = 0.0004176927, No Iterations 2
smoothSolver:  Solving for Uy, Initial residual = 0.11816135, Final residual = 0.010529875, No Iterations 2
smoothSolver:  Solving for Uz, Initial residual = 0.0034206366, Final residual = 0.00011848258, No Iterations 3
GAMG:  Solving for p, Initial residual = 0.15291967, Final residual = 0.00072410329, No Iterations 5
time step continuity errors : sum local = 0.00014214871, global = 2.0132201e-06, cumulative = -0.00049800005
ExecutionTime = 4.84843 s  ClockTime = 5 s

Time = 26s

smoothSolver:  Solving for Ux, Initial residual = 0.0046423025, Final residual = 0.00015040547, No Iterations 3
smoothSolver:  Solving for Uy, Initial residual = 0.08800188, Final residual = 0.0075626271, No Iterations 2
smoothSolver:  Solving for Uz, Initial residual = 0.005387222, Final residual = 0.00019486611, No Iterations 3
GAMG:  Solving for p, Initial residual = 0.13088915, Final residual = 0.00090432614, No Iterations 4
time step continuity errors : sum local = 0.00023987981, global = 6.5682755e-07, cumulative = -0.00049734323
ExecutionTime = 5.01761 s  ClockTime = 5 s

Time = 27s

smoothSolver:  Solving for Ux, Initial residual = 0.0037531275, Final residual = 0.00012723844, No Iterations 3
smoothSolver:  Solving for Uy, Initial residual = 0.055389286, Final residual = 0.0050732804, No Iterations 2
smoothSolver:  Solving for Uz, Initial residual = 0.0045953212, Final residual = 0.00016575393, No Iterations 3
GAMG:  Solving for p, Initial residual = 0.096811037, Final residual = 0.0005353888, No Iterations 5
time step continuity errors : sum local = 0.00013354728, global = -9.154919e-07, cumulative = -0.00049825872
ExecutionTime = 5.198317 s  ClockTime = 5 s

Time = 28s

smoothSolver:  Solving for Ux, Initial residual = 0.0030350888, Final residual = 9.9322148e-05, No Iterations 3
smoothSolver:  Solving for Uy, Initial residual = 0.062668348, Final residual = 0.0060112029, No Iterations 2
smoothSolver:  Solving for Uz, Initial residual = 0.0026312867, Final residual = 9.0912978e-05, No Iterations 3
GAMG:  Solving for p, Initial residual = 0.072842593, Final residual = 0.00064450415, No Iterations 5
time step continuity errors : sum local = 0.00011805443, global = -2.2716102e-06, cumulative = -0.00050053033
ExecutionTime = 5.376278 s  ClockTime = 5 s

Time = 29s

smoothSolver:  Solving for Ux, Initial residual = 0.0026561934, Final residual = 0.00026032434, No Iterations 2
smoothSolver:  Solving for Uy, Initial residual = 0.065729739, Final residual = 0.0060606664, No Iterations 2
smoothSolver:  Solving for Uz, Initial residual = 0.0021094051, Final residual = 6.8963563e-05, No Iterations 3
GAMG:  Solving for p, Initial residual = 0.13656553, Final residual = 0.001151909, No Iterations 4
time step continuity errors : sum local = 0.00014555137, global = 2.6518324e-06, cumulative = -0.0004978785
ExecutionTime = 5.543906 s  ClockTime = 5 s

Time = 30s

smoothSolver:  Solving for Ux, Initial residual = 0.0023634304, Final residual = 0.00023285507, No Iterations 2
smoothSolver:  Solving for Uy, Initial residual = 0.048611364, Final residual = 0.0044628831, No Iterations 2
smoothSolver:  Solving for Uz, Initial residual = 0.0025398913, Final residual = 8.6439393e-05, No Iterations 3
GAMG:  Solving for p, Initial residual = 0.11914673, Final residual = 0.00088670682, No Iterations 4
time step continuity errors : sum local = 0.00013107968, global = 1.0166819e-07, cumulative = -0.00049777683
ExecutionTime = 5.71062 s  ClockTime = 6 s

Time = 31s

smoothSolver:  Solving for Ux, Initial residual = 0.0020625724, Final residual = 6.5629024e-05, No Iterations 3
smoothSolver:  Solving for Uy, Initial residual = 0.037118363, Final residual = 0.0036500325, No Iterations 2
smoothSolver:  Solving for Uz, Initial residual = 0.0020368201, Final residual = 6.8248205e-05, No Iterations 3
GAMG:  Solving for p, Initial residual = 0.089292145, Final residual = 0.00048477038, No Iterations 5
time step continuity errors : sum local = 6.4605111e-05, global = -4.7574786e-08, cumulative = -0.0004978244
ExecutionTime = 5.890263 s  ClockTime = 6 s

Time = 32s

smoothSolver:  Solving for Ux, Initial residual = 0.0021843649, Final residual = 7.1283368e-05, No Iterations 3
smoothSolver:  Solving for Uy, Initial residual = 0.041022794, Final residual = 0.0040519228, No Iterations 2
smoothSolver:  Solving for Uz, Initial residual = 0.0018873393, Final residual = 6.4121926e-05, No Iterations 3
GAMG:  Solving for p, Initial residual = 0.057155783, Final residual = 0.00035231943, No Iterations 5
time step continuity errors : sum local = 5.0738838e-05, global = 5.0390647e-07, cumulative = -0.0004973205
ExecutionTime = 6.068112 s  ClockTime = 6 s

Time = 33s

smoothSolver:  Solving for Ux, Initial residual = 0.0023121641, Final residual = 7.6807978e-05, No Iterations 3
smoothSolver:  Solving for Uy, Initial residual = 0.039799014, Final residual = 0.0038691713, No Iterations 2
smoothSolver:  Solving for Uz, Initial residual = 0.0022625011, Final residual = 7.8943131e-05, No Iterations 3
GAMG:  Solving for p, Initial residual = 0.057442661, Final residual = 0.00041516077, No Iterations 4
time step continuity errors : sum local = 7.1019389e-05, global = -4.8394516e-07, cumulative = -0.00049780444
ExecutionTime = 6.241505 s  ClockTime = 6 s

Time = 34s

smoothSolver:  Solving for Ux, Initial residual = 0.0022033712, Final residual = 7.4851057e-05, No Iterations 3
smoothSolver:  Solving for Uy, Initial residual = 0.032302621, Final residual = 0.0032255945, No Iterations 2
smoothSolver:  Solving for Uz, Initial residual = 0.002344932, Final residual = 8.2355502e-05, No Iterations 3
GAMG:  Solving for p, Initial residual = 0.051083006, Final residual = 0.00043205332, No Iterations 4
time step continuity errors : sum local = 7.7270226e-05, global = 4.3304022e-07, cumulative = -0.0004973714
ExecutionTime = 6.41993 s  ClockTime = 6 s

Time = 35s

smoothSolver:  Solving for Ux, Initial residual = 0.0020537044, Final residual = 7.0226823e-05, No Iterations 3
smoothSolver:  Solving for Uy, Initial residual = 0.029119639, Final residual = 0.00094880598, No Iterations 3
smoothSolver:  Solving for Uz, Initial residual = 0.0021115576, Final residual = 7.3494705e-05, No Iterations 3
GAMG:  Solving for p, Initial residual = 0.03886743, Final residual = 0.00020198948, No Iterations 5
time step continuity errors : sum local = 3.4400556e-05, global = -3.362205e-07, cumulative = -0.00049770762
ExecutionTime = 6.60829 s  ClockTime = 6 s

Time = 36s

smoothSolver:  Solving for Ux, Initial residual = 0.0019488802, Final residual = 6.5549505e-05, No Iterations 3
smoothSolver:  Solving for Uy, Initial residual = 0.029641543, Final residual = 0.00095342647, No Iterations 3
smoothSolver:  Solving for Uz, Initial residual = 0.0018320722, Final residual = 6.2863323e-05, No Iterations 3
GAMG:  Solving for p, Initial residual = 0.039105642, Final residual = 0.0001683866, No Iterations 5
time step continuity errors : sum local = 2.6130989e-05, global = -3.0354314e-07, cumulative = -0.00049801117
ExecutionTime = 6.790468 s  ClockTime = 7 s

Time = 37s

smoothSolver:  Solving for Ux, Initial residual = 0.0018459133, Final residual = 6.1523864e-05, No Iterations 3
smoothSolver:  Solving for Uy, Initial residual = 0.027694716, Final residual = 0.00088826697, No Iterations 3
smoothSolver:  Solving for Uz, Initial residual = 0.001694266, Final residual = 5.7631452e-05, No Iterations 3
GAMG:  Solving for p, Initial residual = 0.046796186, Final residual = 0.00032995691, No Iterations 4
time step continuity errors : sum local = 4.7830917e-05, global = 5.6952946e-07, cumulative = -0.00049744164
ExecutionTime = 6.961076 s  ClockTime = 7 s

Time = 38s

smoothSolver:  Solving for Ux, Initial residual = 0.0017719918, Final residual = 5.9485856e-05, No Iterations 3
smoothSolver:  Solving for Uy, Initial residual = 0.024600077, Final residual = 0.00081027543, No Iterations 3
smoothSolver:  Solving for Uz, Initial residual = 0.0016647293, Final residual = 5.6686377e-05, No Iterations 3
GAMG:  Solving for p, Initial residual = 0.042959318, Final residual = 0.00035925418, No Iterations 4
time step continuity errors : sum local = 5.1836385e-05, global = -6.44611e-08, cumulative = -0.0004975061
ExecutionTime = 7.13268 s  ClockTime = 7 s

Time = 39s

smoothSolver:  Solving for Ux, Initial residual = 0.0017669792, Final residual = 5.9743172e-05, No Iterations 3
smoothSolver:  Solving for Uy, Initial residual = 0.02366916, Final residual = 0.00078988018, No Iterations 3
smoothSolver:  Solving for Uz, Initial residual = 0.0016914741, Final residual = 5.7946616e-05, No Iterations 3
GAMG:  Solving for p, Initial residual = 0.034351813, Final residual = 0.00034016908, No Iterations 4
time step continuity errors : sum local = 5.1058998e-05, global = -1.2688515e-07, cumulative = -0.00049763298
ExecutionTime = 7.303922 s  ClockTime = 7 s

Time = 40s

smoothSolver:  Solving for Ux, Initial residual = 0.0017881603, Final residual = 6.0708526e-05, No Iterations 3
smoothSolver:  Solving for Uy, Initial residual = 0.023530274, Final residual = 0.000781663, No Iterations 3
smoothSolver:  Solving for Uz, Initial residual = 0.001752293, Final residual = 6.0476556e-05, No Iterations 3
GAMG:  Solving for p, Initial residual = 0.031136015, Final residual = 0.00027836737, No Iterations 4
time step continuity errors : sum local = 4.3955681e-05, global = -1.6555924e-07, cumulative = -0.00049779854
ExecutionTime = 7.475667 s  ClockTime = 7 s

Time = 41s

smoothSolver:  Solving for Ux, Initial residual = 0.0017815833, Final residual = 6.0745208e-05, No Iterations 3
smoothSolver:  Solving for Uy, Initial residual = 0.022588456, Final residual = 0.00075310518, No Iterations 3
smoothSolver:  Solving for Uz, Initial residual = 0.001785347, Final residual = 6.1890205e-05, No Iterations 3
GAMG:  Solving for p, Initial residual = 0.030437255, Final residual = 0.00017551632, No Iterations 4
time step continuity errors : sum local = 2.8606356e-05, global = 1.9028564e-07, cumulative = -0.00049760826
ExecutionTime = 7.646621 s  ClockTime = 8 s

Time = 42s

smoothSolver:  Solving for Ux, Initial residual = 0.0017508526, Final residual = 5.9856646e-05, No Iterations 3
smoothSolver:  Solving for Uy, Initial residual = 0.021506597, Final residual = 0.0007243578, No Iterations 3
smoothSolver:  Solving for Uz, Initial residual = 0.0017611109, Final residual = 6.107011e-05, No Iterations 3
GAMG:  Solving for p, Initial residual = 0.028576763, Final residual = 0.00026934938, No Iterations 4
time step continuity errors : sum local = 4.4153827e-05, global = 3.3503609e-07, cumulative = -0.00049727322
ExecutionTime = 7.81869 s  ClockTime = 8 s

Time = 43s

smoothSolver:  Solving for Ux, Initial residual = 0.0017170622, Final residual = 5.858779e-05, No Iterations 3
smoothSolver:  Solving for Uy, Initial residual = 0.020902638, Final residual = 0.00070626232, No Iterations 3
smoothSolver:  Solving for Uz, Initial residual = 0.0016976117, Final residual = 5.8716715e-05, No Iterations 3
GAMG:  Solving for p, Initial residual = 0.027278541, Final residual = 0.00027078055, No Iterations 4
time step continuity errors : sum local = 4.383624e-05, global = 2.924504e-07, cumulative = -0.00049698077
ExecutionTime = 7.989582 s  ClockTime = 8 s

Time = 44s

smoothSolver:  Solving for Ux, Initial residual = 0.0016851812, Final residual = 5.7302935e-05, No Iterations 3
smoothSolver:  Solving for Uy, Initial residual = 0.020353018, Final residual = 0.0006866315, No Iterations 3
smoothSolver:  Solving for Uz, Initial residual = 0.0016335748, Final residual = 5.6339433e-05, No Iterations 3
GAMG:  Solving for p, Initial residual = 0.027893469, Final residual = 0.00024816257, No Iterations 4
time step continuity errors : sum local = 3.9513208e-05, global = 4.0567767e-07, cumulative = -0.00049657509
ExecutionTime = 8.159351 s  ClockTime = 8 s

Time = 45s

smoothSolver:  Solving for Ux, Initial residual = 0.0016584295, Final residual = 5.6325215e-05, No Iterations 3
smoothSolver:  Solving for Uy, Initial residual = 0.019611769, Final residual = 0.00066285717, No Iterations 3
smoothSolver:  Solving for Uz, Initial residual = 0.0015934396, Final residual = 5.4892196e-05, No Iterations 3
GAMG:  Solving for p, Initial residual = 0.028170924, Final residual = 0.00027536682, No Iterations 3
time step continuity errors : sum local = 4.3515125e-05, global = 6.0911121e-07, cumulative = -0.00049596598
ExecutionTime = 8.321359 s  ClockTime = 8 s

Time = 46s

smoothSolver:  Solving for Ux, Initial residual = 0.0016397565, Final residual = 5.5743033e-05, No Iterations 3
smoothSolver:  Solving for Uy, Initial residual = 0.018916654, Final residual = 0.00064178898, No Iterations 3
smoothSolver:  Solving for Uz, Initial residual = 0.0015750463, Final residual = 5.4306359e-05, No Iterations 3
GAMG:  Solving for p, Initial residual = 0.027121645, Final residual = 0.0002134367, No Iterations 4
time step continuity errors : sum local = 3.3894425e-05, global = -1.662606e-07, cumulative = -0.00049613224
ExecutionTime = 8.493724 s  ClockTime = 8 s

Time = 47s

smoothSolver:  Solving for Ux, Initial residual = 0.0016320825, Final residual = 5.5541353e-05, No Iterations 3
smoothSolver:  Solving for Uy, Initial residual = 0.018435878, Final residual = 0.00062616742, No Iterations 3
smoothSolver:  Solving for Uz, Initial residual = 0.0015686554, Final residual = 5.4173072e-05, No Iterations 3
GAMG:  Solving for p, Initial residual = 0.025981943, Final residual = 0.00021940374, No Iterations 4
time step continuity errors : sum local = 3.5243252e-05, global = -2.2627246e-07, cumulative = -0.00049635851
ExecutionTime = 8.665429 s  ClockTime = 9 s

Time = 48s

smoothSolver:  Solving for Ux, Initial residual = 0.0016262333, Final residual = 5.5406807e-05, No Iterations 3
smoothSolver:  Solving for Uy, Initial residual = 0.018001716, Final residual = 0.00061164198, No Iterations 3
smoothSolver:  Solving for Uz, Initial residual = 0.0015659283, Final residual = 5.4185235e-05, No Iterations 3
GAMG:  Solving for p, Initial residual = 0.0251976, Final residual = 0.00018912583, No Iterations 4
time step continuity errors : sum local = 3.0787812e-05, global = -1.3227709e-07, cumulative = -0.00049649079
ExecutionTime = 8.835205 s  ClockTime = 9 s

Time = 49s

smoothSolver:  Solving for Ux, Initial residual = 0.0016168295, Final residual = 5.5121147e-05, No Iterations 3
smoothSolver:  Solving for Uy, Initial residual = 0.017540881, Final residual = 0.00059663895, No Iterations 3
smoothSolver:  Solving for Uz, Initial residual = 0.0015564765, Final residual = 5.393093e-05, No Iterations 3
GAMG:  Solving for p, Initial residual = 0.024700226, Final residual = 0.00022542881, No Iterations 3
time step continuity errors : sum local = 3.7053309e-05, global = 3.8913921e-07, cumulative = -0.00049610165
ExecutionTime = 8.998501 s  ClockTime = 9 s

Time = 50s

smoothSolver:  Solving for Ux, Initial residual = 0.0016023774, Final residual = 5.4614555e-05, No Iterations 3
smoothSolver:  Solving for Uy, Initial residual = 0.017065705, Final residual = 0.00058151951, No Iterations 3
smoothSolver:  Solving for Uz, Initial residual = 0.0015387245, Final residual = 5.3354718e-05, No Iterations 3
GAMG:  Solving for p, Initial residual = 0.024228354, Final residual = 0.00020977832, No Iterations 4
time step continuity errors : sum local = 3.4656251e-05, global = 3.9672719e-07, cumulative = -0.00049570492
ExecutionTime = 9.169949 s  ClockTime = 9 s

Time = 51s

smoothSolver:  Solving for Ux, Initial residual = 0.0015906644, Final residual = 5.4159633e-05, No Iterations 3
smoothSolver:  Solving for Uy, Initial residual = 0.016657555, Final residual = 0.00056813479, No Iterations 3
smoothSolver:  Solving for Uz, Initial residual = 0.0015140066, Final residual = 5.2487516e-05, No Iterations 3
GAMG:  Solving for p, Initial residual = 0.023925645, Final residual = 0.0002245821, No Iterations 4
time step continuity errors : sum local = 3.7145469e-05, global = 4.1563091e-07, cumulative = -0.00049528929
ExecutionTime = 9.343835 s  ClockTime = 9 s

Time = 52s

smoothSolver:  Solving for Ux, Initial residual = 0.0015784125, Final residual = 5.3687451e-05, No Iterations 3
smoothSolver:  Solving for Uy, Initial residual = 0.016257138, Final residual = 0.00055480141, No Iterations 3
smoothSolver:  Solving for Uz, Initial residual = 0.0014873147, Final residual = 5.1546457e-05, No Iterations 3
GAMG:  Solving for p, Initial residual = 0.023825923, Final residual = 0.00021527844, No Iterations 4
time step continuity errors : sum local = 3.5587535e-05, global = 3.5953555e-07, cumulative = -0.00049492976
ExecutionTime = 9.516702 s  ClockTime = 9 s

Time = 53s

smoothSolver:  Solving for Ux, Initial residual = 0.0015663108, Final residual = 5.3248507e-05, No Iterations 3
smoothSolver:  Solving for Uy, Initial residual = 0.015848862, Final residual = 0.00054141362, No Iterations 3
smoothSolver:  Solving for Uz, Initial residual = 0.0014642824, Final residual = 5.0749977e-05, No Iterations 3
GAMG:  Solving for p, Initial residual = 0.023561235, Final residual = 0.00022787944, No Iterations 3
time step continuity errors : sum local = 3.7696447e-05, global = 8.2477061e-07, cumulative = -0.00049410499
ExecutionTime = 9.680473 s  ClockTime = 10 s

Time = 54s

smoothSolver:  Solving for Ux, Initial residual = 0.0015537947, Final residual = 5.2830387e-05, No Iterations 3
smoothSolver:  Solving for Uy, Initial residual = 0.015445875, Final residual = 0.00052812178, No Iterations 3
smoothSolver:  Solving for Uz, Initial residual = 0.0014474209, Final residual = 5.0203868e-05, No Iterations 3
GAMG:  Solving for p, Initial residual = 0.023046393, Final residual = 0.00013968608, No Iterations 4
time step continuity errors : sum local = 2.3199508e-05, global = 3.1007036e-07, cumulative = -0.00049379492
ExecutionTime = 9.849321 s  ClockTime = 10 s

Time = 55s

smoothSolver:  Solving for Ux, Initial residual = 0.0015450184, Final residual = 5.2546256e-05, No Iterations 3
smoothSolver:  Solving for Uy, Initial residual = 0.015084588, Final residual = 0.00051603357, No Iterations 3
smoothSolver:  Solving for Uz, Initial residual = 0.001431202, Final residual = 4.9667681e-05, No Iterations 3
GAMG:  Solving for p, Initial residual = 0.022590525, Final residual = 0.000222946, No Iterations 3
time step continuity errors : sum local = 3.7181611e-05, global = 3.8649131e-07, cumulative = -0.00049340843
ExecutionTime = 10.010409 s  ClockTime = 10 s

Time = 56s

smoothSolver:  Solving for Ux, Initial residual = 0.0015350687, Final residual = 5.223724e-05, No Iterations 3
smoothSolver:  Solving for Uy, Initial residual = 0.014722508, Final residual = 0.00050397323, No Iterations 3
smoothSolver:  Solving for Uz, Initial residual = 0.0014159315, Final residual = 4.917316e-05, No Iterations 3
GAMG:  Solving for p, Initial residual = 0.022173779, Final residual = 0.00013393834, No Iterations 4
time step continuity errors : sum local = 2.2444323e-05, global = 1.9696421e-07, cumulative = -0.00049321146
ExecutionTime = 10.181888 s  ClockTime = 10 s

Time = 57s

smoothSolver:  Solving for Ux, Initial residual = 0.0015285728, Final residual = 5.2044618e-05, No Iterations 3
smoothSolver:  Solving for Uy, Initial residual = 0.014380831, Final residual = 0.00049264972, No Iterations 3
smoothSolver:  Solving for Uz, Initial residual = 0.0014012768, Final residual = 4.8692514e-05, No Iterations 3
GAMG:  Solving for p, Initial residual = 0.021882798, Final residual = 0.00020825822, No Iterations 3
time step continuity errors : sum local = 3.5068841e-05, global = 4.7597072e-07, cumulative = -0.00049273549
ExecutionTime = 10.343703 s  ClockTime = 10 s

Time = 58s

smoothSolver:  Solving for Ux, Initial residual = 0.0015195586, Final residual = 5.178252e-05, No Iterations 3
smoothSolver:  Solving for Uy, Initial residual = 0.01403893, Final residual = 0.0004813883, No Iterations 3
smoothSolver:  Solving for Uz, Initial residual = 0.0013866054, Final residual = 4.821976e-05, No Iterations 3
GAMG:  Solving for p, Initial residual = 0.021615115, Final residual = 0.00013236466, No Iterations 4
time step continuity errors : sum local = 2.2391188e-05, global = 3.5558838e-07, cumulative = -0.0004923799
ExecutionTime = 10.514946 s  ClockTime = 10 s

Time = 59s

smoothSolver:  Solving for Ux, Initial residual = 0.0015128807, Final residual = 5.1608936e-05, No Iterations 3
smoothSolver:  Solving for Uy, Initial residual = 0.013726843, Final residual = 0.00047118121, No Iterations 3
smoothSolver:  Solving for Uz, Initial residual = 0.001372102, Final residual = 4.7741723e-05, No Iterations 3
GAMG:  Solving for p, Initial residual = 0.021379416, Final residual = 0.00013933179, No Iterations 4
time step continuity errors : sum local = 2.3662456e-05, global = 3.9764287e-07, cumulative = -0.00049198226
ExecutionTime = 10.684955 s  ClockTime = 11 s

Time = 60s

smoothSolver:  Solving for Ux, Initial residual = 0.0015049584, Final residual = 5.1383366e-05, No Iterations 3
smoothSolver:  Solving for Uy, Initial residual = 0.013425685, Final residual = 0.00046135166, No Iterations 3
smoothSolver:  Solving for Uz, Initial residual = 0.0013569787, Final residual = 4.7239351e-05, No Iterations 3
GAMG:  Solving for p, Initial residual = 0.021121383, Final residual = 0.00014578946, No Iterations 4
time step continuity errors : sum local = 2.4840652e-05, global = 3.8267866e-07, cumulative = -0.00049159958
ExecutionTime = 10.856262 s  ClockTime = 11 s

Time = 61s

smoothSolver:  Solving for Ux, Initial residual = 0.0014958212, Final residual = 5.1110681e-05, No Iterations 3
smoothSolver:  Solving for Uy, Initial residual = 0.013126807, Final residual = 0.000451597, No Iterations 3
smoothSolver:  Solving for Uz, Initial residual = 0.0013410931, Final residual = 4.6719462e-05, No Iterations 3
GAMG:  Solving for p, Initial residual = 0.020911325, Final residual = 0.00020747412, No Iterations 3
time step continuity errors : sum local = 3.5451492e-05, global = 7.4806774e-07, cumulative = -0.00049085151
ExecutionTime = 11.019026 s  ClockTime = 11 s

Time = 62s

smoothSolver:  Solving for Ux, Initial residual = 0.0014850618, Final residual = 5.0775671e-05, No Iterations 3
smoothSolver:  Solving for Uy, Initial residual = 0.012828183, Final residual = 0.00044181777, No Iterations 3
smoothSolver:  Solving for Uz, Initial residual = 0.0013262502, Final residual = 4.6245803e-05, No Iterations 3
GAMG:  Solving for p, Initial residual = 0.020669746, Final residual = 0.00015813225, No Iterations 4
time step continuity errors : sum local = 2.711151e-05, global = 3.1340454e-07, cumulative = -0.00049053811
ExecutionTime = 11.190921 s  ClockTime = 11 s

Time = 63s

smoothSolver:  Solving for Ux, Initial residual = 0.0014770553, Final residual = 5.0536727e-05, No Iterations 3
smoothSolver:  Solving for Uy, Initial residual = 0.012548642, Final residual = 0.00043268017, No Iterations 3
smoothSolver:  Solving for Uz, Initial residual = 0.0013095841, Final residual = 4.5684336e-05, No Iterations 3
GAMG:  Solving for p, Initial residual = 0.020527385, Final residual = 0.00014086226, No Iterations 4
time step continuity errors : sum local = 2.4204048e-05, global = 2.9618093e-07, cumulative = -0.00049024193
ExecutionTime = 11.36063 s  ClockTime = 11 s

Time = 64s

smoothSolver:  Solving for Ux, Initial residual = 0.0014695757, Final residual = 5.0337e-05, No Iterations 3
smoothSolver:  Solving for Uy, Initial residual = 0.012282984, Final residual = 0.00042410109, No Iterations 3
smoothSolver:  Solving for Uz, Initial residual = 0.0012939621, Final residual = 4.5162677e-05, No Iterations 3
GAMG:  Solving for p, Initial residual = 0.020356108, Final residual = 0.00020076773, No Iterations 3
time step continuity errors : sum local = 3.4585268e-05, global = 5.2685733e-07, cumulative = -0.00048971507
ExecutionTime = 11.524096 s  ClockTime = 11 s

Time = 65s

smoothSolver:  Solving for Ux, Initial residual = 0.0014608538, Final residual = 5.0098314e-05, No Iterations 3
smoothSolver:  Solving for Uy, Initial residual = 0.012027158, Final residual = 0.000415885, No Iterations 3
smoothSolver:  Solving for Uz, Initial residual = 0.001280413, Final residual = 4.4723283e-05, No Iterations 3
GAMG:  Solving for p, Initial residual = 0.020098697, Final residual = 0.00012301018, No Iterations 4
time step continuity errors : sum local = 2.1264358e-05, global = 2.7943037e-07, cumulative = -0.00048943564
ExecutionTime = 11.695593 s  ClockTime = 12 s

Time = 66s

smoothSolver:  Solving for Ux, Initial residual = 0.0014550187, Final residual = 4.9948343e-05, No Iterations 3
smoothSolver:  Solving for Uy, Initial residual = 0.011793216, Final residual = 0.00040838785, No Iterations 3
smoothSolver:  Solving for Uz, Initial residual = 0.0012668467, Final residual = 4.4271722e-05, No Iterations 3
GAMG:  Solving for p, Initial residual = 0.019930893, Final residual = 0.00019839233, No Iterations 3
time step continuity errors : sum local = 3.4405413e-05, global = 5.0103484e-07, cumulative = -0.0004889346
ExecutionTime = 11.85817 s  ClockTime = 12 s

Time = 67s

smoothSolver:  Solving for Ux, Initial residual = 0.0014471202, Final residual = 4.9728849e-05, No Iterations 3
smoothSolver:  Solving for Uy, Initial residual = 0.011565973, Final residual = 0.00040119121, No Iterations 3
smoothSolver:  Solving for Uz, Initial residual = 0.0012544419, Final residual = 4.3869826e-05, No Iterations 3
GAMG:  Solving for p, Initial residual = 0.019717574, Final residual = 0.00012064678, No Iterations 4
time step continuity errors : sum local = 2.0998467e-05, global = 3.0454811e-07, cumulative = -0.00048863006
ExecutionTime = 12.029186 s  ClockTime = 12 s

Time = 68s

smoothSolver:  Solving for Ux, Initial residual = 0.0014413797, Final residual = 4.9594394e-05, No Iterations 3
smoothSolver:  Solving for Uy, Initial residual = 0.011352175, Final residual = 0.0003943828, No Iterations 3
smoothSolver:  Solving for Uz, Initial residual = 0.0012420913, Final residual = 4.3458249e-05, No Iterations 3
GAMG:  Solving for p, Initial residual = 0.019553663, Final residual = 0.00019109231, No Iterations 3
time step continuity errors : sum local = 3.3370733e-05, global = 6.0458143e-07, cumulative = -0.00048802548
ExecutionTime = 12.190746 s  ClockTime = 12 s

Time = 69s

smoothSolver:  Solving for Ux, Initial residual = 0.0014330896, Final residual = 4.9373539e-05, No Iterations 3
smoothSolver:  Solving for Uy, Initial residual = 0.011134678, Final residual = 0.00038734986, No Iterations 3
smoothSolver:  Solving for Uz, Initial residual = 0.0012299577, Final residual = 4.3063906e-05, No Iterations 3
GAMG:  Solving for p, Initial residual = 0.019356563, Final residual = 0.00012282575, No Iterations 4
time step continuity errors : sum local = 2.1525672e-05, global = 3.5490665e-07, cumulative = -0.00048767057
ExecutionTime = 12.363655 s  ClockTime = 12 s

Time = 70s

smoothSolver:  Solving for Ux, Initial residual = 0.0014265986, Final residual = 4.9217778e-05, No Iterations 3
smoothSolver:  Solving for Uy, Initial residual = 0.010918243, Final residual = 0.00038015277, No Iterations 3
smoothSolver:  Solving for Uz, Initial residual = 0.0012170219, Final residual = 4.2633567e-05, No Iterations 3
GAMG:  Solving for p, Initial residual = 0.019250858, Final residual = 0.0001897425, No Iterations 3
time step continuity errors : sum local = 3.3354853e-05, global = 6.6319102e-07, cumulative = -0.00048700738
ExecutionTime = 12.526522 s  ClockTime = 12 s

Time = 71s

smoothSolver:  Solving for Ux, Initial residual = 0.0014181113, Final residual = 4.8989482e-05, No Iterations 3
smoothSolver:  Solving for Uy, Initial residual = 0.010704816, Final residual = 0.00037298555, No Iterations 3
smoothSolver:  Solving for Uz, Initial residual = 0.001204656, Final residual = 4.2222635e-05, No Iterations 3
GAMG:  Solving for p, Initial residual = 0.019065345, Final residual = 0.00012525115, No Iterations 4
time step continuity errors : sum local = 2.2091522e-05, global = 3.4029775e-07, cumulative = -0.00048666708
ExecutionTime = 12.697082 s  ClockTime = 13 s

Time = 72s

smoothSolver:  Solving for Ux, Initial residual = 0.0014115078, Final residual = 4.8819484e-05, No Iterations 3
smoothSolver:  Solving for Uy, Initial residual = 0.010506265, Final residual = 0.00036621495, No Iterations 3
smoothSolver:  Solving for Uz, Initial residual = 0.0011915954, Final residual = 4.1776885e-05, No Iterations 3
GAMG:  Solving for p, Initial residual = 0.018953781, Final residual = 0.00011787498, No Iterations 4
time step continuity errors : sum local = 2.0848594e-05, global = 2.9491598e-07, cumulative = -0.00048637216
ExecutionTime = 12.868116 s  ClockTime = 13 s

Time = 73s

smoothSolver:  Solving for Ux, Initial residual = 0.0014045728, Final residual = 4.8640733e-05, No Iterations 3
smoothSolver:  Solving for Uy, Initial residual = 0.010322019, Final residual = 0.00035992389, No Iterations 3
smoothSolver:  Solving for Uz, Initial residual = 0.00117913, Final residual = 4.1355988e-05, No Iterations 3
GAMG:  Solving for p, Initial residual = 0.01878572, Final residual = 0.00018351332, No Iterations 3
time step continuity errors : sum local = 3.2547907e-05, global = 4.645893e-07, cumulative = -0.00048590757
ExecutionTime = 13.029674 s  ClockTime = 13 s

Time = 74s

smoothSolver:  Solving for Ux, Initial residual = 0.0013960219, Final residual = 4.8403861e-05, No Iterations 3
smoothSolver:  Solving for Uy, Initial residual = 0.01014629, Final residual = 0.00035392818, No Iterations 3
smoothSolver:  Solving for Uz, Initial residual = 0.0011678637, Final residual = 4.0985514e-05, No Iterations 3
GAMG:  Solving for p, Initial residual = 0.018551672, Final residual = 0.00011332528, No Iterations 4
time step continuity errors : sum local = 2.0164499e-05, global = 2.3439715e-07, cumulative = -0.00048567318
ExecutionTime = 13.201469 s  ClockTime = 13 s

Time = 75s

smoothSolver:  Solving for Ux, Initial residual = 0.0013899388, Final residual = 4.8256501e-05, No Iterations 3
smoothSolver:  Solving for Uy, Initial residual = 0.0099835534, Final residual = 0.00034832394, No Iterations 3
smoothSolver:  Solving for Uz, Initial residual = 0.0011560147, Final residual = 4.0584598e-05, No Iterations 3
GAMG:  Solving for p, Initial residual = 0.01842785, Final residual = 0.00010771592, No Iterations 4
time step continuity errors : sum local = 1.9220581e-05, global = 2.0165183e-07, cumulative = -0.00048547153
ExecutionTime = 13.371811 s  ClockTime = 13 s

Time = 76s

smoothSolver:  Solving for Ux, Initial residual = 0.0013836663, Final residual = 4.8111124e-05, No Iterations 3
smoothSolver:  Solving for Uy, Initial residual = 0.0098191905, Final residual = 0.00034256512, No Iterations 3
smoothSolver:  Solving for Uz, Initial residual = 0.0011444852, Final residual = 4.0202248e-05, No Iterations 3
GAMG:  Solving for p, Initial residual = 0.018308332, Final residual = 0.0001783028, No Iterations 3
time step continuity errors : sum local = 3.1908039e-05, global = 3.6670286e-07, cumulative = -0.00048510482
ExecutionTime = 13.532291 s  ClockTime = 13 s

Time = 77s

smoothSolver:  Solving for Ux, Initial residual = 0.0013755979, Final residual = 4.7909506e-05, No Iterations 3
smoothSolver:  Solving for Uy, Initial residual = 0.0096486064, Final residual = 0.00033659533, No Iterations 3
smoothSolver:  Solving for Uz, Initial residual = 0.0011335886, Final residual = 3.9853775e-05, No Iterations 3
GAMG:  Solving for p, Initial residual = 0.018131519, Final residual = 0.000107125, No Iterations 4
time step continuity errors : sum local = 1.9232417e-05, global = 2.3514007e-07, cumulative = -0.00048486968
ExecutionTime = 13.703996 s  ClockTime = 14 s

Time = 78s

smoothSolver:  Solving for Ux, Initial residual = 0.0013694984, Final residual = 4.7778765e-05, No Iterations 3
smoothSolver:  Solving for Uy, Initial residual = 0.0094837159, Final residual = 0.00033070901, No Iterations 3
smoothSolver:  Solving for Uz, Initial residual = 0.0011222142, Final residual = 3.9478196e-05, No Iterations 3
GAMG:  Solving for p, Initial residual = 0.018015087, Final residual = 0.00010328989, No Iterations 4
time step continuity errors : sum local = 1.8597268e-05, global = 2.4971014e-07, cumulative = -0.00048461997
ExecutionTime = 13.874585 s  ClockTime = 14 s

Time = 79s

smoothSolver:  Solving for Ux, Initial residual = 0.0013627815, Final residual = 4.7614897e-05, No Iterations 3
smoothSolver:  Solving for Uy, Initial residual = 0.0093228384, Final residual = 0.00032493566, No Iterations 3
smoothSolver:  Solving for Uz, Initial residual = 0.0011111172, Final residual = 3.9113302e-05, No Iterations 3
GAMG:  Solving for p, Initial residual = 0.017875692, Final residual = 0.00017067863, No Iterations 3
time step continuity errors : sum local = 3.0816686e-05, global = 4.6768588e-07, cumulative = -0.00048415229
ExecutionTime = 14.036513 s  ClockTime = 14 s

Time = 80s

smoothSolver:  Solving for Ux, Initial residual = 0.001354436, Final residual = 4.7388385e-05, No Iterations 3
smoothSolver:  Solving for Uy, Initial residual = 0.0091690147, Final residual = 0.00031935268, No Iterations 3
smoothSolver:  Solving for Uz, Initial residual = 0.0011006601, Final residual = 3.8776939e-05, No Iterations 3
GAMG:  Solving for p, Initial residual = 0.017720009, Final residual = 0.00010528067, No Iterations 4
time step continuity errors : sum local = 1.9067722e-05, global = 2.8346513e-07, cumulative = -0.00048386882
ExecutionTime = 14.208409 s  ClockTime = 14 s

Time = 81s

smoothSolver:  Solving for Ux, Initial residual = 0.0013478597, Final residual = 4.7218197e-05, No Iterations 3
smoothSolver:  Solving for Uy, Initial residual = 0.0090271063, Final residual = 0.00031416906, No Iterations 3
smoothSolver:  Solving for Uz, Initial residual = 0.0010897965, Final residual = 3.8415185e-05, No Iterations 3
GAMG:  Solving for p, Initial residual = 0.017622816, Final residual = 0.00017539475, No Iterations 3
time step continuity errors : sum local = 3.1850287e-05, global = 5.1690232e-07, cumulative = -0.00048335192
ExecutionTime = 14.369409 s  ClockTime = 14 s

Time = 82s

smoothSolver:  Solving for Ux, Initial residual = 0.0013400397, Final residual = 4.6981444e-05, No Iterations 3
smoothSolver:  Solving for Uy, Initial residual = 0.0088873331, Final residual = 0.00030919422, No Iterations 3
smoothSolver:  Solving for Uz, Initial residual = 0.0010795128, Final residual = 3.8078005e-05, No Iterations 3
GAMG:  Solving for p, Initial residual = 0.017469568, Final residual = 0.00010780888, No Iterations 4
time step continuity errors : sum local = 1.9634056e-05, global = 2.764645e-07, cumulative = -0.00048307545
ExecutionTime = 14.539507 s  ClockTime = 14 s

Time = 83s

smoothSolver:  Solving for Ux, Initial residual = 0.0013339535, Final residual = 4.6806142e-05, No Iterations 3
smoothSolver:  Solving for Uy, Initial residual = 0.0087592538, Final residual = 0.00030449814, No Iterations 3
smoothSolver:  Solving for Uz, Initial residual = 0.0010688723, Final residual = 3.7719106e-05, No Iterations 3
GAMG:  Solving for p, Initial residual = 0.017407436, Final residual = 0.00017386601, No Iterations 3
time step continuity errors : sum local = 3.1739862e-05, global = 4.7048031e-07, cumulative = -0.00048260497
ExecutionTime = 14.699891 s  ClockTime = 15 s

Time = 84s

smoothSolver:  Solving for Ux, Initial residual = 0.0013264358, Final residual = 4.6569087e-05, No Iterations 3
smoothSolver:  Solving for Uy, Initial residual = 0.0086315398, Final residual = 0.00029972001, No Iterations 3
smoothSolver:  Solving for Uz, Initial residual = 0.0010587393, Final residual = 3.738621e-05, No Iterations 3
GAMG:  Solving for p, Initial residual = 0.01729404, Final residual = 0.0001040657, No Iterations 4
time step continuity errors : sum local = 1.9049932e-05, global = 2.3644832e-07, cumulative = -0.00048236853
ExecutionTime = 14.871436 s  ClockTime = 15 s

Time = 85s

smoothSolver:  Solving for Ux, Initial residual = 0.0013202855, Final residual = 4.637476e-05, No Iterations 3
smoothSolver:  Solving for Uy, Initial residual = 0.0085066002, Final residual = 0.00029500704, No Iterations 3
smoothSolver:  Solving for Uz, Initial residual = 0.0010483282, Final residual = 3.7032808e-05, No Iterations 3
GAMG:  Solving for p, Initial residual = 0.017201126, Final residual = 0.00016700746, No Iterations 3
time step continuity errors : sum local = 3.064169e-05, global = 3.8255279e-07, cumulative = -0.00048198597
ExecutionTime = 15.032852 s  ClockTime = 15 s

Time = 86s

smoothSolver:  Solving for Ux, Initial residual = 0.001312598, Final residual = 4.6123715e-05, No Iterations 3
smoothSolver:  Solving for Uy, Initial residual = 0.0083844089, Final residual = 0.00029042048, No Iterations 3
smoothSolver:  Solving for Uz, Initial residual = 0.0010384855, Final residual = 3.6706613e-05, No Iterations 3
GAMG:  Solving for p, Initial residual = 0.017023717, Final residual = 9.7935803e-05, No Iterations 4
time step continuity errors : sum local = 1.8016806e-05, global = 1.9481334e-07, cumulative = -0.00048179116
ExecutionTime = 15.203698 s  ClockTime = 15 s

Time = 87s

smoothSolver:  Solving for Ux, Initial residual = 0.0013062792, Final residual = 4.5916942e-05, No Iterations 3
smoothSolver:  Solving for Uy, Initial residual = 0.0082751245, Final residual = 0.00028636558, No Iterations 3
smoothSolver:  Solving for Uz, Initial residual = 0.0010285133, Final residual = 3.6368715e-05, No Iterations 3
GAMG:  Solving for p, Initial residual = 0.016887267, Final residual = 0.00016332551, No Iterations 3
time step continuity errors : sum local = 3.0116265e-05, global = 3.2391465e-07, cumulative = -0.00048146725
ExecutionTime = 15.364658 s  ClockTime = 15 s

Time = 88s

smoothSolver:  Solving for Ux, Initial residual = 0.001298756, Final residual = 4.5666332e-05, No Iterations 3
smoothSolver:  Solving for Uy, Initial residual = 0.008174764, Final residual = 0.00028281528, No Iterations 3
smoothSolver:  Solving for Uz, Initial residual = 0.0010192518, Final residual = 3.6063306e-05, No Iterations 3
GAMG:  Solving for p, Initial residual = 0.01673208, Final residual = 9.3545432e-05, No Iterations 4
time step continuity errors : sum local = 1.729589e-05, global = 1.8423367e-07, cumulative = -0.00048128301
ExecutionTime = 15.536335 s  ClockTime = 16 s

Time = 89s

smoothSolver:  Solving for Ux, Initial residual = 0.0012930984, Final residual = 4.5473535e-05, No Iterations 3
smoothSolver:  Solving for Uy, Initial residual = 0.0080983033, Final residual = 0.00028001935, No Iterations 3
smoothSolver:  Solving for Uz, Initial residual = 0.0010100255, Final residual = 3.5753189e-05, No Iterations 3
GAMG:  Solving for p, Initial residual = 0.016694487, Final residual = 0.00016202506, No Iterations 3
time step continuity errors : sum local = 3.0031333e-05, global = 3.3195477e-07, cumulative = -0.00048095106
ExecutionTime = 15.699412 s  ClockTime = 16 s

Time = 90s

smoothSolver:  Solving for Ux, Initial residual = 0.0012861465, Final residual = 4.5237489e-05, No Iterations 3
smoothSolver:  Solving for Uy, Initial residual = 0.0080214735, Final residual = 0.00027721985, No Iterations 3
smoothSolver:  Solving for Uz, Initial residual = 0.0010012729, Final residual = 3.5467696e-05, No Iterations 3
GAMG:  Solving for p, Initial residual = 0.016641536, Final residual = 9.2943402e-05, No Iterations 4
time step continuity errors : sum local = 1.7274177e-05, global = 2.0479133e-07, cumulative = -0.00048074627
ExecutionTime = 15.872375 s  ClockTime = 16 s

Time = 91s

smoothSolver:  Solving for Ux, Initial residual = 0.001280749, Final residual = 4.5068703e-05, No Iterations 3
smoothSolver:  Solving for Uy, Initial residual = 0.0079608661, Final residual = 0.00027486834, No Iterations 3
smoothSolver:  Solving for Uz, Initial residual = 0.00099245484, Final residual = 3.5176586e-05, No Iterations 3
GAMG:  Solving for p, Initial residual = 0.016605755, Final residual = 0.00016058723, No Iterations 3
time step continuity errors : sum local = 2.9922244e-05, global = 3.6545487e-07, cumulative = -0.00048038081
ExecutionTime = 16.035167 s  ClockTime = 16 s

Time = 92s

smoothSolver:  Solving for Ux, Initial residual = 0.0012736586, Final residual = 4.484651e-05, No Iterations 3
smoothSolver:  Solving for Uy, Initial residual = 0.0078851575, Final residual = 0.00027207606, No Iterations 3
smoothSolver:  Solving for Uz, Initial residual = 0.00098366265, Final residual = 3.4896739e-05, No Iterations 3
GAMG:  Solving for p, Initial residual = 0.016443615, Final residual = 9.2637533e-05, No Iterations 4
time step continuity errors : sum local = 1.730716e-05, global = 2.2413718e-07, cumulative = -0.00048015667
ExecutionTime = 16.20629 s  ClockTime = 16 s

Time = 93s

smoothSolver:  Solving for Ux, Initial residual = 0.0012676937, Final residual = 4.4690571e-05, No Iterations 3
smoothSolver:  Solving for Uy, Initial residual = 0.0078081414, Final residual = 0.00026917713, No Iterations 3
smoothSolver:  Solving for Uz, Initial residual = 0.00097441664, Final residual = 3.4595169e-05, No Iterations 3
GAMG:  Solving for p, Initial residual = 0.016292515, Final residual = 0.00015861759, No Iterations 3
time step continuity errors : sum local = 2.9702382e-05, global = 3.8659675e-07, cumulative = -0.00047977008
ExecutionTime = 16.367722 s  ClockTime = 16 s

Time = 94s

smoothSolver:  Solving for Ux, Initial residual = 0.0012599926, Final residual = 4.4490217e-05, No Iterations 3
smoothSolver:  Solving for Uy, Initial residual = 0.0077065024, Final residual = 0.00026548456, No Iterations 3
smoothSolver:  Solving for Uz, Initial residual = 0.00096518546, Final residual = 3.429988e-05, No Iterations 3
GAMG:  Solving for p, Initial residual = 0.016122751, Final residual = 9.521219e-05, No Iterations 4
time step continuity errors : sum local = 1.7872263e-05, global = 2.0948157e-07, cumulative = -0.00047956059
ExecutionTime = 16.539053 s  ClockTime = 17 s

Time = 95s

smoothSolver:  Solving for Ux, Initial residual = 0.0012530182, Final residual = 4.4316676e-05, No Iterations 3
smoothSolver:  Solving for Uy, Initial residual = 0.0076062857, Final residual = 0.00026168934, No Iterations 3
smoothSolver:  Solving for Uz, Initial residual = 0.00095539331, Final residual = 3.3979093e-05, No Iterations 3
GAMG:  Solving for p, Initial residual = 0.016068066, Final residual = 0.0001585888, No Iterations 3
time step continuity errors : sum local = 2.9827275e-05, global = 3.4732109e-07, cumulative = -0.00047921327
ExecutionTime = 16.702436 s  ClockTime = 17 s

Time = 96s

smoothSolver:  Solving for Ux, Initial residual = 0.0012451449, Final residual = 4.4113196e-05, No Iterations 3
smoothSolver:  Solving for Uy, Initial residual = 0.0075082121, Final residual = 0.00025805218, No Iterations 3
smoothSolver:  Solving for Uz, Initial residual = 0.00094621446, Final residual = 3.368799e-05, No Iterations 3
GAMG:  Solving for p, Initial residual = 0.015986771, Final residual = 9.3543489e-05, No Iterations 4
time step continuity errors : sum local = 1.7634951e-05, global = 1.7702671e-07, cumulative = -0.00047903625
ExecutionTime = 16.872299 s  ClockTime = 17 s

Time = 97s

smoothSolver:  Solving for Ux, Initial residual = 0.0012384946, Final residual = 4.3960518e-05, No Iterations 3
smoothSolver:  Solving for Uy, Initial residual = 0.0074389264, Final residual = 0.0002556057, No Iterations 3
smoothSolver:  Solving for Uz, Initial residual = 0.00093722577, Final residual = 3.3396757e-05, No Iterations 3
GAMG:  Solving for p, Initial residual = 0.015923691, Final residual = 0.00015629988, No Iterations 3
time step continuity errors : sum local = 2.9524563e-05, global = 2.9582357e-07, cumulative = -0.00047874042
ExecutionTime = 17.03503 s  ClockTime = 17 s

Time = 98s

smoothSolver:  Solving for Ux, Initial residual = 0.0012313128, Final residual = 4.3787829e-05, No Iterations 3
smoothSolver:  Solving for Uy, Initial residual = 0.0073839963, Final residual = 0.00025375123, No Iterations 3
smoothSolver:  Solving for Uz, Initial residual = 0.00092906042, Final residual = 3.3144152e-05, No Iterations 3
GAMG:  Solving for p, Initial residual = 0.015803048, Final residual = 8.8865787e-05, No Iterations 4
time step continuity errors : sum local = 1.6826407e-05, global = 1.6629375e-07, cumulative = -0.00047857413
ExecutionTime = 17.207704 s  ClockTime = 17 s

Time = 99s

smoothSolver:  Solving for Ux, Initial residual = 0.0012257276, Final residual = 4.3659346e-05, No Iterations 3
smoothSolver:  Solving for Uy, Initial residual = 0.007352839, Final residual = 0.00025279956, No Iterations 3
smoothSolver:  Solving for Uz, Initial residual = 0.00092107047, Final residual = 3.2887758e-05, No Iterations 3
GAMG:  Solving for p, Initial residual = 0.015731785, Final residual = 0.00015281557, No Iterations 3
time step continuity errors : sum local = 2.8997423e-05, global = 2.7728964e-07, cumulative = -0.00047829684
ExecutionTime = 17.368743 s  ClockTime = 17 s

Time = 100s

smoothSolver:  Solving for Ux, Initial residual = 0.0012191067, Final residual = 4.3487729e-05, No Iterations 3
smoothSolver:  Solving for Uy, Initial residual = 0.0073071356, Final residual = 0.00025138712, No Iterations 3
smoothSolver:  Solving for Uz, Initial residual = 0.00091327579, Final residual = 3.2644479e-05, No Iterations 3
GAMG:  Solving for p, Initial residual = 0.015651044, Final residual = 8.5695929e-05, No Iterations 4
time step continuity errors : sum local = 1.6300504e-05, global = 1.6561105e-07, cumulative = -0.00047813123
ExecutionTime = 17.540649 s  ClockTime = 18 s

Time = 101s

smoothSolver:  Solving for Ux, Initial residual = 0.0012135566, Final residual = 4.3348879e-05, No Iterations 3
smoothSolver:  Solving for Uy, Initial residual = 0.0072642444, Final residual = 0.00025001861, No Iterations 3
smoothSolver:  Solving for Uz, Initial residual = 0.00090521729, Final residual = 3.2383128e-05, No Iterations 3
GAMG:  Solving for p, Initial residual = 0.015587041, Final residual = 0.00015122037, No Iterations 3
time step continuity errors : sum local = 2.8825294e-05, global = 2.8807986e-07, cumulative = -0.00047784315
ExecutionTime = 17.702145 s  ClockTime = 18 s

Time = 102s

smoothSolver:  Solving for Ux, Initial residual = 0.0012066183, Final residual = 4.3162347e-05, No Iterations 3
smoothSolver:  Solving for Uy, Initial residual = 0.0072006331, Final residual = 0.00024781951, No Iterations 3
smoothSolver:  Solving for Uz, Initial residual = 0.00089715875, Final residual = 3.2130372e-05, No Iterations 3
GAMG:  Solving for p, Initial residual = 0.015481502, Final residual = 8.7157682e-05, No Iterations 4
time step continuity errors : sum local = 1.6652157e-05, global = 1.6649075e-07, cumulative = -0.00047767666
ExecutionTime = 17.873283 s  ClockTime = 18 s

Time = 103s

smoothSolver:  Solving for Ux, Initial residual = 0.0012005825, Final residual = 4.3003905e-05, No Iterations 3
smoothSolver:  Solving for Uy, Initial residual = 0.0071400377, Final residual = 0.0002455666, No Iterations 3
smoothSolver:  Solving for Uz, Initial residual = 0.00088874769, Final residual = 3.185518e-05, No Iterations 3
GAMG:  Solving for p, Initial residual = 0.015407796, Final residual = 0.00015351058, No Iterations 3
time step continuity errors : sum local = 2.9389337e-05, global = 2.9099919e-07, cumulative = -0.00047738566
ExecutionTime = 18.034872 s  ClockTime = 18 s

Time = 104s

smoothSolver:  Solving for Ux, Initial residual = 0.0011934729, Final residual = 4.2797193e-05, No Iterations 3
smoothSolver:  Solving for Uy, Initial residual = 0.007069888, Final residual = 0.0002429944, No Iterations 3
smoothSolver:  Solving for Uz, Initial residual = 0.0008806682, Final residual = 3.1593566e-05, No Iterations 3
GAMG:  Solving for p, Initial residual = 0.015248051, Final residual = 8.9318156e-05, No Iterations 4
time step continuity errors : sum local = 1.7138836e-05, global = 1.5117044e-07, cumulative = -0.00047723449
ExecutionTime = 18.205296 s  ClockTime = 18 s

Time = 105s

smoothSolver:  Solving for Ux, Initial residual = 0.0011871204, Final residual = 4.2608669e-05, No Iterations 3
smoothSolver:  Solving for Uy, Initial residual = 0.0070133529, Final residual = 0.00024095564, No Iterations 3
smoothSolver:  Solving for Uz, Initial residual = 0.00087248019, Final residual = 3.1321738e-05, No Iterations 3
GAMG:  Solving for p, Initial residual = 0.015151559, Final residual = 0.00014999209, No Iterations 3
time step continuity errors : sum local = 2.8837303e-05, global = 2.7209488e-07, cumulative = -0.00047696239
ExecutionTime = 18.367812 s  ClockTime = 18 s

Time = 106s

smoothSolver:  Solving for Ux, Initial residual = 0.0011800895, Final residual = 4.2396324e-05, No Iterations 3
smoothSolver:  Solving for Uy, Initial residual = 0.0069545573, Final residual = 0.00023904049, No Iterations 3
smoothSolver:  Solving for Uz, Initial residual = 0.00086472398, Final residual = 3.107171e-05, No Iterations 3
GAMG:  Solving for p, Initial residual = 0.015011844, Final residual = 8.6673837e-05, No Iterations 4
time step continuity errors : sum local = 1.6701415e-05, global = 1.4829375e-07, cumulative = -0.0004768141
ExecutionTime = 18.538778 s  ClockTime = 19 s

Time = 107s

smoothSolver:  Solving for Ux, Initial residual = 0.0011741605, Final residual = 4.2203904e-05, No Iterations 3
smoothSolver:  Solving for Uy, Initial residual = 0.0069158501, Final residual = 0.00023788795, No Iterations 3
smoothSolver:  Solving for Uz, Initial residual = 0.00085699455, Final residual = 3.0812263e-05, No Iterations 3
GAMG:  Solving for p, Initial residual = 0.014934054, Final residual = 0.00014591436, No Iterations 3
time step continuity errors : sum local = 2.8169917e-05, global = 2.6765512e-07, cumulative = -0.00047654645
ExecutionTime = 18.701233 s  ClockTime = 19 s

Time = 108s

smoothSolver:  Solving for Ux, Initial residual = 0.0011676439, Final residual = 4.198914e-05, No Iterations 3
smoothSolver:  Solving for Uy, Initial residual = 0.006873679, Final residual = 0.00023675175, No Iterations 3
smoothSolver:  Solving for Uz, Initial residual = 0.00084966197, Final residual = 3.0572207e-05, No Iterations 3
GAMG:  Solving for p, Initial residual = 0.014798441, Final residual = 8.2283139e-05, No Iterations 4
time step continuity errors : sum local = 1.5921147e-05, global = 1.6446478e-07, cumulative = -0.00047638198
ExecutionTime = 18.872008 s  ClockTime = 19 s

Time = 109s

smoothSolver:  Solving for Ux, Initial residual = 0.0011622575, Final residual = 4.1812593e-05, No Iterations 3
smoothSolver:  Solving for Uy, Initial residual = 0.0068509737, Final residual = 0.00023628644, No Iterations 3
smoothSolver:  Solving for Uz, Initial residual = 0.0008423753, Final residual = 3.0326231e-05, No Iterations 3
GAMG:  Solving for p, Initial residual = 0.014746488, Final residual = 0.00014222382, No Iterations 3
time step continuity errors : sum local = 2.7572739e-05, global = 2.7290026e-07, cumulative = -0.00047610908
ExecutionTime = 19.033372 s  ClockTime = 19 s

Time = 110s

smoothSolver:  Solving for Ux, Initial residual = 0.0011560857, Final residual = 4.1609336e-05, No Iterations 3
smoothSolver:  Solving for Uy, Initial residual = 0.0068156225, Final residual = 0.00023532672, No Iterations 3
smoothSolver:  Solving for Uz, Initial residual = 0.00083531602, Final residual = 3.0091957e-05, No Iterations 3
GAMG:  Solving for p, Initial residual = 0.014658759, Final residual = 8.1682872e-05, No Iterations 4
time step continuity errors : sum local = 1.5871005e-05, global = 1.7269781e-07, cumulative = -0.00047593638
ExecutionTime = 19.207946 s  ClockTime = 19 s

Time = 111s

smoothSolver:  Solving for Ux, Initial residual = 0.0011508109, Final residual = 4.1425633e-05, No Iterations 3
smoothSolver:  Solving for Uy, Initial residual = 0.0067889943, Final residual = 0.00023455392, No Iterations 3
smoothSolver:  Solving for Uz, Initial residual = 0.00082816279, Final residual = 2.9841606e-05, No Iterations 3
GAMG:  Solving for p, Initial residual = 0.014613725, Final residual = 0.00014188306, No Iterations 3
time step continuity errors : sum local = 2.7621517e-05, global = 2.8888622e-07, cumulative = -0.0004756475
ExecutionTime = 19.369018 s  ClockTime = 19 s

Time = 112s

smoothSolver:  Solving for Ux, Initial residual = 0.0011445537, Final residual = 4.1200496e-05, No Iterations 3
smoothSolver:  Solving for Uy, Initial residual = 0.0067438739, Final residual = 0.00023307297, No Iterations 3
smoothSolver:  Solving for Uz, Initial residual = 0.00082113726, Final residual = 2.9598892e-05, No Iterations 3
GAMG:  Solving for p, Initial residual = 0.014519559, Final residual = 8.4747995e-05, No Iterations 4
time step continuity errors : sum local = 1.6534559e-05, global = 1.5541903e-07, cumulative = -0.00047549208
ExecutionTime = 19.538583 s  ClockTime = 20 s

Time = 113s

smoothSolver:  Solving for Ux, Initial residual = 0.0011386495, Final residual = 4.098485e-05, No Iterations 3
smoothSolver:  Solving for Uy, Initial residual = 0.006707417, Final residual = 0.00023186826, No Iterations 3
smoothSolver:  Solving for Uz, Initial residual = 0.00081387217, Final residual = 2.9338862e-05, No Iterations 3
GAMG:  Solving for p, Initial residual = 0.014495106, Final residual = 0.0001427709, No Iterations 3
time step continuity errors : sum local = 2.790401e-05, global = 2.7297169e-07, cumulative = -0.00047521911
ExecutionTime = 19.699172 s  ClockTime = 20 s

Time = 114s

smoothSolver:  Solving for Ux, Initial residual = 0.0011322482, Final residual = 4.0752721e-05, No Iterations 3
smoothSolver:  Solving for Uy, Initial residual = 0.0066593085, Final residual = 0.00023038292, No Iterations 3
smoothSolver:  Solving for Uz, Initial residual = 0.00080686306, Final residual = 2.9095359e-05, No Iterations 3
GAMG:  Solving for p, Initial residual = 0.014399144, Final residual = 8.6167942e-05, No Iterations 4
time step continuity errors : sum local = 1.6876033e-05, global = 1.3013382e-07, cumulative = -0.00047508897
ExecutionTime = 19.868686 s  ClockTime = 20 s

Time = 115s

smoothSolver:  Solving for Ux, Initial residual = 0.0011264915, Final residual = 4.0536884e-05, No Iterations 3
smoothSolver:  Solving for Uy, Initial residual = 0.0066269552, Final residual = 0.00022950949, No Iterations 3
smoothSolver:  Solving for Uz, Initial residual = 0.00079988508, Final residual = 2.8845681e-05, No Iterations 3
GAMG:  Solving for p, Initial residual = 0.014335127, Final residual = 0.00014246579, No Iterations 3
time step continuity errors : sum local = 2.7945995e-05, global = 2.2893919e-07, cumulative = -0.00047486003
ExecutionTime = 20.030675 s  ClockTime = 20 s

Time = 116s

smoothSolver:  Solving for Ux, Initial residual = 0.001120499, Final residual = 4.0312039e-05, No Iterations 3
smoothSolver:  Solving for Uy, Initial residual = 0.0065861402, Final residual = 0.00022835323, No Iterations 3
smoothSolver:  Solving for Uz, Initial residual = 0.000793274, Final residual = 2.8615856e-05, No Iterations 3
GAMG:  Solving for p, Initial residual = 0.014194256, Final residual = 8.5324038e-05, No Iterations 4
time step continuity errors : sum local = 1.676999e-05, global = 1.1772389e-07, cumulative = -0.00047474231
ExecutionTime = 20.202906 s  ClockTime = 20 s

Time = 117s

smoothSolver:  Solving for Ux, Initial residual = 0.0011150741, Final residual = 4.0094946e-05, No Iterations 3
smoothSolver:  Solving for Uy, Initial residual = 0.0065563663, Final residual = 0.00022750931, No Iterations 3
smoothSolver:  Solving for Uz, Initial residual = 0.00078664587, Final residual = 2.8377976e-05, No Iterations 3
GAMG:  Solving for p, Initial residual = 0.014077374, Final residual = 0.00013898328, No Iterations 3
time step continuity errors : sum local = 2.7359691e-05, global = 2.0701173e-07, cumulative = -0.0004745353
ExecutionTime = 20.364187 s  ClockTime = 20 s

Time = 118s

smoothSolver:  Solving for Ux, Initial residual = 0.001109198, Final residual = 3.9858721e-05, No Iterations 3
smoothSolver:  Solving for Uy, Initial residual = 0.0065088587, Final residual = 0.0002260111, No Iterations 3
smoothSolver:  Solving for Uz, Initial residual = 0.00078007708, Final residual = 2.8150114e-05, No Iterations 3
GAMG:  Solving for p, Initial residual = 0.013915582, Final residual = 8.1846847e-05, No Iterations 4
time step continuity errors : sum local = 1.6143091e-05, global = 1.1289933e-07, cumulative = -0.0004744224
ExecutionTime = 20.534675 s  ClockTime = 21 s

Time = 119s

smoothSolver:  Solving for Ux, Initial residual = 0.0011038876, Final residual = 3.9628399e-05, No Iterations 3
smoothSolver:  Solving for Uy, Initial residual = 0.0064719163, Final residual = 0.000224848, No Iterations 3
smoothSolver:  Solving for Uz, Initial residual = 0.00077342661, Final residual = 2.7910992e-05, No Iterations 3
GAMG:  Solving for p, Initial residual = 0.013797045, Final residual = 0.00013492915, No Iterations 3
time step continuity errors : sum local = 2.6653931e-05, global = 2.1793838e-07, cumulative = -0.00047420446
ExecutionTime = 20.69876 s  ClockTime = 21 s

Time = 120s

smoothSolver:  Solving for Ux, Initial residual = 0.00109818, Final residual = 3.9393752e-05, No Iterations 3
smoothSolver:  Solving for Uy, Initial residual = 0.0064288912, Final residual = 0.00022350552, No Iterations 3
smoothSolver:  Solving for Uz, Initial residual = 0.00076702784, Final residual = 2.7688177e-05, No Iterations 3
GAMG:  Solving for p, Initial residual = 0.013676064, Final residual = 7.9694854e-05, No Iterations 4
time step continuity errors : sum local = 1.5773476e-05, global = 1.3451492e-07, cumulative = -0.00047406994
ExecutionTime = 20.869749 s  ClockTime = 21 s

Time = 121s

smoothSolver:  Solving for Ux, Initial residual = 0.0010932181, Final residual = 3.9180193e-05, No Iterations 3
smoothSolver:  Solving for Uy, Initial residual = 0.0064073398, Final residual = 0.00022294735, No Iterations 3
smoothSolver:  Solving for Uz, Initial residual = 0.00076092202, Final residual = 2.7468255e-05, No Iterations 3
GAMG:  Solving for p, Initial residual = 0.013637532, Final residual = 7.5601893e-05, No Iterations 4
time step continuity errors : sum local = 1.4987699e-05, global = 1.5116381e-07, cumulative = -0.00047391878
ExecutionTime = 21.042214 s  ClockTime = 21 s

Time = 122s

smoothSolver:  Solving for Ux, Initial residual = 0.0010882174, Final residual = 3.895942e-05, No Iterations 3
smoothSolver:  Solving for Uy, Initial residual = 0.0063901766, Final residual = 0.00022261652, No Iterations 3
smoothSolver:  Solving for Uz, Initial residual = 0.00075519119, Final residual = 2.7263925e-05, No Iterations 3
GAMG:  Solving for p, Initial residual = 0.013594943, Final residual = 0.00013195122, No Iterations 3
time step continuity errors : sum local = 2.6203986e-05, global = 2.4502454e-07, cumulative = -0.00047367376
ExecutionTime = 21.204869 s  ClockTime = 21 s

Time = 123s

smoothSolver:  Solving for Ux, Initial residual = 0.0010827614, Final residual = 3.8730973e-05, No Iterations 3
smoothSolver:  Solving for Uy, Initial residual = 0.0063633437, Final residual = 0.00022191492, No Iterations 3
smoothSolver:  Solving for Uz, Initial residual = 0.0007497177, Final residual = 2.7072614e-05, No Iterations 3
GAMG:  Solving for p, Initial residual = 0.013519887, Final residual = 7.5696884e-05, No Iterations 4
time step continuity errors : sum local = 1.5063122e-05, global = 1.6545402e-07, cumulative = -0.0004735083
ExecutionTime = 21.37737 s  ClockTime = 21 s

Time = 124s

smoothSolver:  Solving for Ux, Initial residual = 0.0010784706, Final residual = 3.8529586e-05, No Iterations 3
smoothSolver:  Solving for Uy, Initial residual = 0.006353569, Final residual = 0.0002217637, No Iterations 3
smoothSolver:  Solving for Uz, Initial residual = 0.00074447789, Final residual = 2.6880763e-05, No Iterations 3
GAMG:  Solving for p, Initial residual = 0.013462837, Final residual = 7.4741669e-05, No Iterations 4
time step continuity errors : sum local = 1.4899202e-05, global = 1.6335293e-07, cumulative = -0.00047334495
ExecutionTime = 21.550069 s  ClockTime = 22 s

Time = 125s

smoothSolver:  Solving for Ux, Initial residual = 0.0010742728, Final residual = 3.8328116e-05, No Iterations 3
smoothSolver:  Solving for Uy, Initial residual = 0.00634129, Final residual = 0.00022144938, No Iterations 3
smoothSolver:  Solving for Uz, Initial residual = 0.00073929351, Final residual = 2.6691019e-05, No Iterations 3
GAMG:  Solving for p, Initial residual = 0.013386596, Final residual = 7.2536677e-05, No Iterations 4
time step continuity errors : sum local = 1.4484168e-05, global = 1.5339874e-07, cumulative = -0.00047319155
ExecutionTime = 21.720614 s  ClockTime = 22 s

Time = 126s

smoothSolver:  Solving for Ux, Initial residual = 0.0010699081, Final residual = 3.8113084e-05, No Iterations 3
smoothSolver:  Solving for Uy, Initial residual = 0.0063212527, Final residual = 0.00022083544, No Iterations 3
smoothSolver:  Solving for Uz, Initial residual = 0.00073404347, Final residual = 2.6499348e-05, No Iterations 3
GAMG:  Solving for p, Initial residual = 0.01331971, Final residual = 0.00013045805, No Iterations 3
time step continuity errors : sum local = 2.6093362e-05, global = 2.3185186e-07, cumulative = -0.0004729597
ExecutionTime = 21.882143 s  ClockTime = 22 s

Time = 127s

smoothSolver:  Solving for Ux, Initial residual = 0.0010648384, Final residual = 3.7880749e-05, No Iterations 3
smoothSolver:  Solving for Uy, Initial residual = 0.0062862856, Final residual = 0.00021961179, No Iterations 3
smoothSolver:  Solving for Uz, Initial residual = 0.00072865032, Final residual = 2.6308143e-05, No Iterations 3
GAMG:  Solving for p, Initial residual = 0.013241983, Final residual = 7.8939205e-05, No Iterations 4
time step continuity errors : sum local = 1.5817315e-05, global = 1.2836115e-07, cumulative = -0.00047283134
ExecutionTime = 22.053781 s  ClockTime = 22 s

Time = 128s

smoothSolver:  Solving for Ux, Initial residual = 0.0010605121, Final residual = 3.767106e-05, No Iterations 3
smoothSolver:  Solving for Uy, Initial residual = 0.0062615327, Final residual = 0.00021871558, No Iterations 3
smoothSolver:  Solving for Uz, Initial residual = 0.00072321877, Final residual = 2.610692e-05, No Iterations 3
GAMG:  Solving for p, Initial residual = 0.013229959, Final residual = 7.8622851e-05, No Iterations 4
time step continuity errors : sum local = 1.5776728e-05, global = 1.1854911e-07, cumulative = -0.00047271279
ExecutionTime = 22.225496 s  ClockTime = 22 s

Time = 129s

smoothSolver:  Solving for Ux, Initial residual = 0.0010561257, Final residual = 3.7472981e-05, No Iterations 3
smoothSolver:  Solving for Uy, Initial residual = 0.0062336653, Final residual = 0.00021770167, No Iterations 3
smoothSolver:  Solving for Uz, Initial residual = 0.00071781356, Final residual = 2.5907949e-05, No Iterations 3
GAMG:  Solving for p, Initial residual = 0.013191626, Final residual = 7.4735119e-05, No Iterations 4
time step continuity errors : sum local = 1.5018109e-05, global = 1.1820521e-07, cumulative = -0.00047259458
ExecutionTime = 22.399058 s  ClockTime = 22 s

Time = 130s

smoothSolver:  Solving for Ux, Initial residual = 0.0010516167, Final residual = 3.7282789e-05, No Iterations 3
smoothSolver:  Solving for Uy, Initial residual = 0.0062043322, Final residual = 0.00021663102, No Iterations 3
[...]
GAMG:  Solving for p, Initial residual = 1.4978495e-05, Final residual = 9.5784621e-08, No Iterations 3
time step continuity errors : sum local = 2.3577896e-08, global = 5.4367367e-10, cumulative = -0.00047651544
ExecutionTime = 182.13358 s  ClockTime = 184 s

Time = 1107s

smoothSolver:  Solving for Ux, Initial residual = 1.0252796e-06, Final residual = 3.6874933e-08, No Iterations 3
smoothSolver:  Solving for Uy, Initial residual = 7.6355597e-06, Final residual = 2.8115099e-07, No Iterations 3
smoothSolver:  Solving for Uz, Initial residual = 3.5472113e-07, Final residual = 1.2507487e-08, No Iterations 3
GAMG:  Solving for p, Initial residual = 1.4794344e-05, Final residual = 9.4272715e-08, No Iterations 3
time step continuity errors : sum local = 2.3205729e-08, global = 4.8915014e-10, cumulative = -0.00047651495
ExecutionTime = 182.29378 s  ClockTime = 184 s

Time = 1108s

smoothSolver:  Solving for Ux, Initial residual = 1.0117903e-06, Final residual = 3.6387632e-08, No Iterations 3
smoothSolver:  Solving for Uy, Initial residual = 7.5422104e-06, Final residual = 2.7787506e-07, No Iterations 3
smoothSolver:  Solving for Uz, Initial residual = 3.5032979e-07, Final residual = 1.2350406e-08, No Iterations 3
GAMG:  Solving for p, Initial residual = 1.4611276e-05, Final residual = 9.2790765e-08, No Iterations 3
time step continuity errors : sum local = 2.2840936e-08, global = 4.4188931e-10, cumulative = -0.00047651451
ExecutionTime = 182.45559 s  ClockTime = 185 s

Time = 1109s

smoothSolver:  Solving for Ux, Initial residual = 9.9854715e-07, Final residual = 3.590587e-08, No Iterations 3
smoothSolver:  Solving for Uy, Initial residual = 7.4499557e-06, Final residual = 2.745678e-07, No Iterations 3
smoothSolver:  Solving for Uz, Initial residual = 3.460046e-07, Final residual = 1.2195731e-08, No Iterations 3
GAMG:  Solving for p, Initial residual = 1.44324e-05, Final residual = 9.1401304e-08, No Iterations 3
time step continuity errors : sum local = 2.249891e-08, global = 3.9614711e-10, cumulative = -0.00047651412
ExecutionTime = 182.61737 s  ClockTime = 185 s

Time = 1110s

smoothSolver:  Solving for Ux, Initial residual = 9.853248e-07, Final residual = 3.5425054e-08, No Iterations 3
smoothSolver:  Solving for Uy, Initial residual = 7.3580319e-06, Final residual = 2.7125093e-07, No Iterations 3
smoothSolver:  Solving for Uz, Initial residual = 3.417246e-07, Final residual = 1.2042223e-08, No Iterations 3
GAMG:  Solving for p, Initial residual = 1.4256678e-05, Final residual = 9.0065309e-08, No Iterations 3
time step continuity errors : sum local = 2.2170046e-08, global = 3.6247184e-10, cumulative = -0.00047651375
ExecutionTime = 182.77774 s  ClockTime = 185 s

Time = 1111s

smoothSolver:  Solving for Ux, Initial residual = 9.7222415e-07, Final residual = 3.4942577e-08, No Iterations 3
smoothSolver:  Solving for Uy, Initial residual = 7.2679755e-06, Final residual = 2.6791474e-07, No Iterations 3
smoothSolver:  Solving for Uz, Initial residual = 3.3750652e-07, Final residual = 1.1888545e-08, No Iterations 3
GAMG:  Solving for p, Initial residual = 1.4084613e-05, Final residual = 8.8778534e-08, No Iterations 3
time step continuity errors : sum local = 2.1853297e-08, global = 3.2843152e-10, cumulative = -0.00047651343
ExecutionTime = 182.9407 s  ClockTime = 185 s

Time = 1112s

smoothSolver:  Solving for Ux, Initial residual = 9.5945353e-07, Final residual = 3.4470474e-08, No Iterations 3
smoothSolver:  Solving for Uy, Initial residual = 7.1779147e-06, Final residual = 2.6457444e-07, No Iterations 3
smoothSolver:  Solving for Uz, Initial residual = 3.3334868e-07, Final residual = 1.1736457e-08, No Iterations 3
GAMG:  Solving for p, Initial residual = 1.3916069e-05, Final residual = 8.7510563e-08, No Iterations 3
time step continuity errors : sum local = 2.1541177e-08, global = 3.0702296e-10, cumulative = -0.00047651312
ExecutionTime = 183.10064 s  ClockTime = 185 s

Time = 1113s

smoothSolver:  Solving for Ux, Initial residual = 9.4689524e-07, Final residual = 3.4003137e-08, No Iterations 3
smoothSolver:  Solving for Uy, Initial residual = 7.088661e-06, Final residual = 2.612255e-07, No Iterations 3
smoothSolver:  Solving for Uz, Initial residual = 3.2926292e-07, Final residual = 1.1588905e-08, No Iterations 3
GAMG:  Solving for p, Initial residual = 1.3746233e-05, Final residual = 8.62914e-08, No Iterations 3
time step continuity errors : sum local = 2.1241072e-08, global = 2.7865671e-10, cumulative = -0.00047651284
ExecutionTime = 183.26085 s  ClockTime = 185 s

Time = 1114s

smoothSolver:  Solving for Ux, Initial residual = 9.3458936e-07, Final residual = 3.3547393e-08, No Iterations 3
smoothSolver:  Solving for Uy, Initial residual = 6.9995857e-06, Final residual = 2.5786958e-07, No Iterations 3
smoothSolver:  Solving for Uz, Initial residual = 3.2523673e-07, Final residual = 1.1443532e-08, No Iterations 3
GAMG:  Solving for p, Initial residual = 1.3574529e-05, Final residual = 8.5153507e-08, No Iterations 3
time step continuity errors : sum local = 2.0960971e-08, global = 2.5618347e-10, cumulative = -0.00047651258
ExecutionTime = 183.42234 s  ClockTime = 186 s

Time = 1115s

smoothSolver:  Solving for Ux, Initial residual = 9.2229873e-07, Final residual = 3.3100919e-08, No Iterations 3
smoothSolver:  Solving for Uy, Initial residual = 6.9117571e-06, Final residual = 2.5446954e-07, No Iterations 3
smoothSolver:  Solving for Uz, Initial residual = 3.2121423e-07, Final residual = 1.1301613e-08, No Iterations 3
GAMG:  Solving for p, Initial residual = 1.3401379e-05, Final residual = 8.4075459e-08, No Iterations 3
time step continuity errors : sum local = 2.0695602e-08, global = 2.3318264e-10, cumulative = -0.00047651235
ExecutionTime = 183.58565 s  ClockTime = 186 s

Time = 1116s

smoothSolver:  Solving for Ux, Initial residual = 9.1023175e-07, Final residual = 3.2659599e-08, No Iterations 3
smoothSolver:  Solving for Uy, Initial residual = 6.8248671e-06, Final residual = 2.510802e-07, No Iterations 3
smoothSolver:  Solving for Uz, Initial residual = 3.1720638e-07, Final residual = 1.1164467e-08, No Iterations 3
GAMG:  Solving for p, Initial residual = 1.322845e-05, Final residual = 8.3107929e-08, No Iterations 3
time step continuity errors : sum local = 2.0457437e-08, global = 2.070037e-10, cumulative = -0.00047651214
ExecutionTime = 183.74707 s  ClockTime = 186 s

Time = 1117s

smoothSolver:  Solving for Ux, Initial residual = 8.9823073e-07, Final residual = 3.2229955e-08, No Iterations 3
smoothSolver:  Solving for Uy, Initial residual = 6.7383513e-06, Final residual = 2.4764608e-07, No Iterations 3
smoothSolver:  Solving for Uz, Initial residual = 3.1321415e-07, Final residual = 1.1030098e-08, No Iterations 3
GAMG:  Solving for p, Initial residual = 1.3059376e-05, Final residual = 8.2241375e-08, No Iterations 3
time step continuity errors : sum local = 2.0244129e-08, global = 1.7784167e-10, cumulative = -0.00047651197
ExecutionTime = 183.90913 s  ClockTime = 186 s

Time = 1118s

smoothSolver:  Solving for Ux, Initial residual = 8.8650843e-07, Final residual = 3.1815923e-08, No Iterations 3
smoothSolver:  Solving for Uy, Initial residual = 6.6533002e-06, Final residual = 2.4425823e-07, No Iterations 3
smoothSolver:  Solving for Uz, Initial residual = 3.0930638e-07, Final residual = 1.0897744e-08, No Iterations 3
GAMG:  Solving for p, Initial residual = 1.2890368e-05, Final residual = 8.1451822e-08, No Iterations 3
time step continuity errors : sum local = 2.0049774e-08, global = 1.5025164e-10, cumulative = -0.00047651182
ExecutionTime = 184.06957 s  ClockTime = 186 s

Time = 1119s

smoothSolver:  Solving for Ux, Initial residual = 8.7501808e-07, Final residual = 3.1404164e-08, No Iterations 3
smoothSolver:  Solving for Uy, Initial residual = 6.5685892e-06, Final residual = 2.4095686e-07, No Iterations 3
smoothSolver:  Solving for Uz, Initial residual = 3.0545868e-07, Final residual = 1.0768933e-08, No Iterations 3
GAMG:  Solving for p, Initial residual = 1.271821e-05, Final residual = 8.0675382e-08, No Iterations 3
time step continuity errors : sum local = 1.9858648e-08, global = 1.1493175e-10, cumulative = -0.0004765117
ExecutionTime = 184.23144 s  ClockTime = 186 s

Time = 1120s

smoothSolver:  Solving for Ux, Initial residual = 8.6354159e-07, Final residual = 3.0984467e-08, No Iterations 3
smoothSolver:  Solving for Uy, Initial residual = 6.4852495e-06, Final residual = 2.3778405e-07, No Iterations 3
smoothSolver:  Solving for Uz, Initial residual = 3.0168432e-07, Final residual = 1.06426e-08, No Iterations 3
GAMG:  Solving for p, Initial residual = 1.2545684e-05, Final residual = 7.990829e-08, No Iterations 3
time step continuity errors : sum local = 1.9669822e-08, global = 7.7035588e-11, cumulative = -0.00047651162
ExecutionTime = 184.39385 s  ClockTime = 187 s

Time = 1121s

smoothSolver:  Solving for Ux, Initial residual = 8.5216623e-07, Final residual = 3.0568864e-08, No Iterations 3
smoothSolver:  Solving for Uy, Initial residual = 6.4021461e-06, Final residual = 2.3466284e-07, No Iterations 3
smoothSolver:  Solving for Uz, Initial residual = 2.9795489e-07, Final residual = 1.0517169e-08, No Iterations 3
GAMG:  Solving for p, Initial residual = 1.2372315e-05, Final residual = 7.9131109e-08, No Iterations 3
time step continuity errors : sum local = 1.9478514e-08, global = 3.6564108e-11, cumulative = -0.00047651159
ExecutionTime = 184.55498 s  ClockTime = 187 s

Time = 1122s

smoothSolver:  Solving for Ux, Initial residual = 8.4113462e-07, Final residual = 3.0156083e-08, No Iterations 3
smoothSolver:  Solving for Uy, Initial residual = 6.3202016e-06, Final residual = 2.3168786e-07, No Iterations 3
smoothSolver:  Solving for Uz, Initial residual = 2.9429501e-07, Final residual = 1.0393074e-08, No Iterations 3
GAMG:  Solving for p, Initial residual = 1.2202749e-05, Final residual = 7.8340525e-08, No Iterations 3
time step continuity errors : sum local = 1.9283906e-08, global = -5.9736424e-12, cumulative = -0.00047651159
ExecutionTime = 184.71665 s  ClockTime = 187 s

Time = 1123s

smoothSolver:  Solving for Ux, Initial residual = 8.3029694e-07, Final residual = 2.9756293e-08, No Iterations 3
smoothSolver:  Solving for Uy, Initial residual = 6.2395657e-06, Final residual = 2.2876073e-07, No Iterations 3
smoothSolver:  Solving for Uz, Initial residual = 2.9068082e-07, Final residual = 1.0270631e-08, No Iterations 3
GAMG:  Solving for p, Initial residual = 1.2035129e-05, Final residual = 7.7548997e-08, No Iterations 3
time step continuity errors : sum local = 1.9089066e-08, global = -4.9958442e-11, cumulative = -0.00047651164
ExecutionTime = 184.87898 s  ClockTime = 187 s

Time = 1124s

smoothSolver:  Solving for Ux, Initial residual = 8.1962093e-07, Final residual = 2.9360217e-08, No Iterations 3
smoothSolver:  Solving for Uy, Initial residual = 6.1595092e-06, Final residual = 2.2581743e-07, No Iterations 3
smoothSolver:  Solving for Uz, Initial residual = 2.8711218e-07, Final residual = 1.0148828e-08, No Iterations 3
GAMG:  Solving for p, Initial residual = 1.1869045e-05, Final residual = 7.6762065e-08, No Iterations 3
time step continuity errors : sum local = 1.8895357e-08, global = -8.3524323e-11, cumulative = -0.00047651173
ExecutionTime = 185.04153 s  ClockTime = 187 s

Time = 1125s

smoothSolver:  Solving for Ux, Initial residual = 8.0915084e-07, Final residual = 2.8963873e-08, No Iterations 3
smoothSolver:  Solving for Uy, Initial residual = 6.0805293e-06, Final residual = 2.2285213e-07, No Iterations 3
smoothSolver:  Solving for Uz, Initial residual = 2.8360815e-07, Final residual = 1.0027407e-08, No Iterations 3
GAMG:  Solving for p, Initial residual = 1.1707468e-05, Final residual = 7.5948887e-08, No Iterations 3
time step continuity errors : sum local = 1.8695188e-08, global = -1.1692226e-10, cumulative = -0.00047651184
ExecutionTime = 185.20526 s  ClockTime = 187 s

Time = 1126s

smoothSolver:  Solving for Ux, Initial residual = 7.9876994e-07, Final residual = 2.8567908e-08, No Iterations 3
smoothSolver:  Solving for Uy, Initial residual = 6.0026149e-06, Final residual = 2.1993488e-07, No Iterations 3
smoothSolver:  Solving for Uz, Initial residual = 2.8015306e-07, Final residual = 9.9077449e-09, No Iterations 3
GAMG:  Solving for p, Initial residual = 1.1549901e-05, Final residual = 7.5076105e-08, No Iterations 3
time step continuity errors : sum local = 1.8480347e-08, global = -1.3549507e-10, cumulative = -0.00047651198
ExecutionTime = 185.37159 s  ClockTime = 188 s

Time = 1127s

smoothSolver:  Solving for Ux, Initial residual = 7.8865728e-07, Final residual = 2.8182872e-08, No Iterations 3
smoothSolver:  Solving for Uy, Initial residual = 5.924807e-06, Final residual = 2.1704836e-07, No Iterations 3
smoothSolver:  Solving for Uz, Initial residual = 2.7674949e-07, Final residual = 9.7870584e-09, No Iterations 3
GAMG:  Solving for p, Initial residual = 1.1394717e-05, Final residual = 7.4141729e-08, No Iterations 3
time step continuity errors : sum local = 1.8250345e-08, global = -1.4523801e-10, cumulative = -0.00047651212
ExecutionTime = 185.53485 s  ClockTime = 188 s

Time = 1128s

smoothSolver:  Solving for Ux, Initial residual = 7.7867867e-07, Final residual = 2.7804939e-08, No Iterations 3
smoothSolver:  Solving for Uy, Initial residual = 5.8475359e-06, Final residual = 2.1422805e-07, No Iterations 3
smoothSolver:  Solving for Uz, Initial residual = 2.7342018e-07, Final residual = 9.6658173e-09, No Iterations 3
GAMG:  Solving for p, Initial residual = 1.1242504e-05, Final residual = 7.3161129e-08, No Iterations 3
time step continuity errors : sum local = 1.8008964e-08, global = -1.4405297e-10, cumulative = -0.00047651227
ExecutionTime = 185.69695 s  ClockTime = 188 s

Time = 1129s

smoothSolver:  Solving for Ux, Initial residual = 7.6881507e-07, Final residual = 2.7433115e-08, No Iterations 3
smoothSolver:  Solving for Uy, Initial residual = 5.7718048e-06, Final residual = 2.1146275e-07, No Iterations 3
smoothSolver:  Solving for Uz, Initial residual = 2.7012194e-07, Final residual = 9.5449928e-09, No Iterations 3
GAMG:  Solving for p, Initial residual = 1.1093402e-05, Final residual = 7.2153851e-08, No Iterations 3
time step continuity errors : sum local = 1.7761017e-08, global = -1.3219948e-10, cumulative = -0.0004765124
ExecutionTime = 185.85802 s  ClockTime = 188 s

Time = 1130s

smoothSolver:  Solving for Ux, Initial residual = 7.5894062e-07, Final residual = 2.7069471e-08, No Iterations 3
smoothSolver:  Solving for Uy, Initial residual = 5.6975208e-06, Final residual = 2.087949e-07, No Iterations 3
smoothSolver:  Solving for Uz, Initial residual = 2.6686785e-07, Final residual = 9.4249043e-09, No Iterations 3
GAMG:  Solving for p, Initial residual = 1.0946115e-05, Final residual = 7.1092275e-08, No Iterations 3
time step continuity errors : sum local = 1.7499704e-08, global = -1.1785748e-10, cumulative = -0.00047651252
ExecutionTime = 186.01923 s  ClockTime = 188 s

Time = 1131s

smoothSolver:  Solving for Ux, Initial residual = 7.4924771e-07, Final residual = 2.6725978e-08, No Iterations 3
smoothSolver:  Solving for Uy, Initial residual = 5.6240832e-06, Final residual = 2.0621591e-07, No Iterations 3
smoothSolver:  Solving for Uz, Initial residual = 2.6362747e-07, Final residual = 9.3065608e-09, No Iterations 3
GAMG:  Solving for p, Initial residual = 1.0801765e-05, Final residual = 6.9975061e-08, No Iterations 3
time step continuity errors : sum local = 1.7224695e-08, global = -9.4978019e-11, cumulative = -0.00047651261
ExecutionTime = 186.18153 s  ClockTime = 188 s

Time = 1132s

smoothSolver:  Solving for Ux, Initial residual = 7.3965662e-07, Final residual = 2.6391584e-08, No Iterations 3
smoothSolver:  Solving for Uy, Initial residual = 5.551793e-06, Final residual = 2.036811e-07, No Iterations 3
smoothSolver:  Solving for Uz, Initial residual = 2.6039762e-07, Final residual = 9.1920356e-09, No Iterations 3
GAMG:  Solving for p, Initial residual = 1.066335e-05, Final residual = 6.873342e-08, No Iterations 3
time step continuity errors : sum local = 1.6919059e-08, global = -6.591895e-11, cumulative = -0.00047651268
ExecutionTime = 186.34208 s  ClockTime = 189 s

Time = 1133s

smoothSolver:  Solving for Ux, Initial residual = 7.3028453e-07, Final residual = 2.6061707e-08, No Iterations 3
smoothSolver:  Solving for Uy, Initial residual = 5.4800936e-06, Final residual = 2.0118348e-07, No Iterations 3
smoothSolver:  Solving for Uz, Initial residual = 2.5720993e-07, Final residual = 9.0813884e-09, No Iterations 3
GAMG:  Solving for p, Initial residual = 1.0529003e-05, Final residual = 6.7623131e-08, No Iterations 3
time step continuity errors : sum local = 1.6645755e-08, global = -3.8204314e-11, cumulative = -0.00047651272
ExecutionTime = 186.50398 s  ClockTime = 189 s

Time = 1134s

smoothSolver:  Solving for Ux, Initial residual = 7.2102524e-07, Final residual = 2.5733789e-08, No Iterations 3
smoothSolver:  Solving for Uy, Initial residual = 5.4095456e-06, Final residual = 1.9869316e-07, No Iterations 3
smoothSolver:  Solving for Uz, Initial residual = 2.5405536e-07, Final residual = 8.9724042e-09, No Iterations 3
GAMG:  Solving for p, Initial residual = 1.0397327e-05, Final residual = 6.6422603e-08, No Iterations 3
time step continuity errors : sum local = 1.6350238e-08, global = -3.8586541e-12, cumulative = -0.00047651272
ExecutionTime = 186.66381 s  ClockTime = 189 s

Time = 1135s

smoothSolver:  Solving for Ux, Initial residual = 7.1194509e-07, Final residual = 2.5415023e-08, No Iterations 3
smoothSolver:  Solving for Uy, Initial residual = 5.3395896e-06, Final residual = 1.9617909e-07, No Iterations 3
smoothSolver:  Solving for Uz, Initial residual = 2.5094587e-07, Final residual = 8.8660298e-09, No Iterations 3
GAMG:  Solving for p, Initial residual = 1.0267799e-05, Final residual = 6.5291027e-08, No Iterations 3
time step continuity errors : sum local = 1.6071694e-08, global = 2.3458394e-11, cumulative = -0.0004765127
ExecutionTime = 186.82577 s  ClockTime = 189 s

Time = 1136s

smoothSolver:  Solving for Ux, Initial residual = 7.029175e-07, Final residual = 2.5101419e-08, No Iterations 3
smoothSolver:  Solving for Uy, Initial residual = 5.2700858e-06, Final residual = 1.9370822e-07, No Iterations 3
smoothSolver:  Solving for Uz, Initial residual = 2.4787832e-07, Final residual = 8.761247e-09, No Iterations 3
GAMG:  Solving for p, Initial residual = 1.014103e-05, Final residual = 6.4130958e-08, No Iterations 3
time step continuity errors : sum local = 1.5786137e-08, global = 5.4295212e-11, cumulative = -0.00047651264
ExecutionTime = 186.98702 s  ClockTime = 189 s

Time = 1137s

smoothSolver:  Solving for Ux, Initial residual = 6.9389475e-07, Final residual = 2.4793491e-08, No Iterations 3
smoothSolver:  Solving for Uy, Initial residual = 5.2008717e-06, Final residual = 1.9122153e-07, No Iterations 3
smoothSolver:  Solving for Uz, Initial residual = 2.4485784e-07, Final residual = 8.6600179e-09, No Iterations 3
GAMG:  Solving for p, Initial residual = 1.0013744e-05, Final residual = 6.2898961e-08, No Iterations 3
time step continuity errors : sum local = 1.5482874e-08, global = 8.1723358e-11, cumulative = -0.00047651256
ExecutionTime = 187.14946 s  ClockTime = 189 s

Time = 1138s

smoothSolver:  Solving for Ux, Initial residual = 6.8511157e-07, Final residual = 2.4494672e-08, No Iterations 3
smoothSolver:  Solving for Uy, Initial residual = 5.132444e-06, Final residual = 1.8876105e-07, No Iterations 3
smoothSolver:  Solving for Uz, Initial residual = 2.4187517e-07, Final residual = 8.5617578e-09, No Iterations 3
GAMG:  Solving for p, Initial residual = 9.8900477e-06, Final residual = 6.1732476e-08, No Iterations 3
time step continuity errors : sum local = 1.5195738e-08, global = 1.0837511e-10, cumulative = -0.00047651245
ExecutionTime = 187.31019 s  ClockTime = 190 s


SIMPLE solution converged in 1138 iterations

End

Finalising parallel run
