/*---------------------------------------------------------------------------*\
  =========                 |
  \\      /  F ield         | OpenFOAM: The Open Source CFD Toolbox
   \\    /   O peration     | Website:  https://openfoam.org
    \\  /    A nd           | Version:  11
     \\/     M anipulation  |
\*---------------------------------------------------------------------------*/
Build  : 11-e1fc8c682ae6
Exec   : foamRun -solver incompressibleFluid -parallel
Date   : Feb 08 2026
Time   : 01:53:40
Host   : "ip-172-31-18-192"
PID    : 123319
I/O    : uncollated
Case   : /home/ubuntu/cases/bifurcation_angle30_1000_ascii/Re300
nProcs : 16
Slaves : 
15
(
"ip-172-31-18-192.123320"
"ip-172-31-18-192.123321"
"ip-172-31-18-192.123322"
"ip-172-31-18-192.123323"
"ip-172-31-18-192.123324"
"ip-172-31-18-192.123325"
"ip-172-31-18-192.123326"
"ip-172-31-18-192.123327"
"ip-172-31-18-192.123328"
"ip-172-31-18-192.123329"
"ip-172-31-18-192.123330"
"ip-172-31-18-192.123331"
"ip-172-31-18-192.123332"
"ip-172-31-18-192.123333"
"ip-172-31-18-192.123334"
)

Pstream initialised with:
    floatTransfer      : false
    nProcsSimpleSum    : 0
    commsType          : nonBlocking
    polling iterations : 0
sigFpe : Enabling floating point exception trapping (FOAM_SIGFPE).
fileModificationChecking : Monitoring run-time modified files using timeStampMaster (fileModificationSkew 10)
allowSystemOperations : Allowing user-supplied system call operations

// * * * * * * * * * * * * * * * * * * * * * * * * * * * * * * * * * * * * * //
Create time

Create mesh for time = 0

Selecting solver incompressibleFluid
Selecting viscosity model Newtonian
Selecting turbulence model type laminar
Selecting laminar stress model Stokes
No MRF models present


SIMPLE: Convergence criteria found
        p: tolerance 1e-05
        U: tolerance 1e-05


SIMPLE: Operating solver in steady-state mode with 1 outer corrector
SIMPLE: Operating solver in SIMPLE mode



Starting time loop

wallShearStress wallShearStress:
    processing wall patches: 
        wall-fluid_domain

Time = 1s

smoothSolver:  Solving for Ux, Initial residual = 1, Final residual = 0.057724857, No Iterations 1
smoothSolver:  Solving for Uy, Initial residual = 1, Final residual = 0.047350152, No Iterations 1
smoothSolver:  Solving for Uz, Initial residual = 1, Final residual = 0.014073501, No Iterations 1
GAMG:  Solving for p, Initial residual = 1, Final residual = 0.0088074212, No Iterations 10
time step continuity errors : sum local = 0.00017826625, global = -3.2725323e-06, cumulative = -3.2725323e-06
ExecutionTime = 0.777073 s  ClockTime = 1 s

Time = 2s

smoothSolver:  Solving for Ux, Initial residual = 0.2213569, Final residual = 0.014465426, No Iterations 2
smoothSolver:  Solving for Uy, Initial residual = 0.34899167, Final residual = 0.016685375, No Iterations 2
smoothSolver:  Solving for Uz, Initial residual = 0.23453109, Final residual = 0.015658372, No Iterations 2
GAMG:  Solving for p, Initial residual = 0.37097634, Final residual = 0.002705358, No Iterations 6
time step continuity errors : sum local = 0.0048168913, global = -0.00012609704, cumulative = -0.00012936958
ExecutionTime = 1.040726 s  ClockTime = 2 s

Time = 3s

smoothSolver:  Solving for Ux, Initial residual = 0.24572942, Final residual = 0.0081413992, No Iterations 3
smoothSolver:  Solving for Uy, Initial residual = 0.13800267, Final residual = 0.0084698892, No Iterations 2
smoothSolver:  Solving for Uz, Initial residual = 0.4659124, Final residual = 0.016650987, No Iterations 3
GAMG:  Solving for p, Initial residual = 0.16250023, Final residual = 0.00080268003, No Iterations 3
time step continuity errors : sum local = 0.0070394261, global = 7.6261294e-05, cumulative = -5.3108283e-05
ExecutionTime = 1.240525 s  ClockTime = 2 s

Time = 4s

smoothSolver:  Solving for Ux, Initial residual = 0.15934537, Final residual = 0.0054720042, No Iterations 3
smoothSolver:  Solving for Uy, Initial residual = 0.073364976, Final residual = 0.004528289, No Iterations 2
smoothSolver:  Solving for Uz, Initial residual = 0.31233705, Final residual = 0.011179836, No Iterations 3
GAMG:  Solving for p, Initial residual = 0.11221709, Final residual = 0.00089693946, No Iterations 5
time step continuity errors : sum local = 0.0080742514, global = 1.3605572e-05, cumulative = -3.9502711e-05
ExecutionTime = 1.535551 s  ClockTime = 2 s

Time = 5s

smoothSolver:  Solving for Ux, Initial residual = 0.076265645, Final residual = 0.0024394482, No Iterations 3
smoothSolver:  Solving for Uy, Initial residual = 0.17913723, Final residual = 0.012380621, No Iterations 2
smoothSolver:  Solving for Uz, Initial residual = 0.1201671, Final residual = 0.0043084243, No Iterations 3
GAMG:  Solving for p, Initial residual = 0.086589407, Final residual = 0.00072303333, No Iterations 6
time step continuity errors : sum local = 0.0034087463, global = 0.000131357, cumulative = 9.185429e-05
ExecutionTime = 1.771737 s  ClockTime = 2 s

Time = 6s

smoothSolver:  Solving for Ux, Initial residual = 0.062305057, Final residual = 0.0054863934, No Iterations 2
smoothSolver:  Solving for Uy, Initial residual = 0.40467036, Final residual = 0.027312881, No Iterations 2
smoothSolver:  Solving for Uz, Initial residual = 0.050780553, Final residual = 0.001713144, No Iterations 3
GAMG:  Solving for p, Initial residual = 0.45613933, Final residual = 0.0045526267, No Iterations 4
time step continuity errors : sum local = 0.011660581, global = 0.00027869718, cumulative = 0.00037055147
ExecutionTime = 1.981314 s  ClockTime = 2 s

Time = 7s

smoothSolver:  Solving for Ux, Initial residual = 0.11765748, Final residual = 0.011745553, No Iterations 2
smoothSolver:  Solving for Uy, Initial residual = 0.259052, Final residual = 0.016944817, No Iterations 2
smoothSolver:  Solving for Uz, Initial residual = 0.16091146, Final residual = 0.0057680108, No Iterations 3
GAMG:  Solving for p, Initial residual = 0.27973443, Final residual = 0.0025138425, No Iterations 3
time step continuity errors : sum local = 0.012091958, global = -0.00018139338, cumulative = 0.00018915809
ExecutionTime = 2.178737 s  ClockTime = 3 s

Time = 8s

smoothSolver:  Solving for Ux, Initial residual = 0.11241719, Final residual = 0.0037227746, No Iterations 3
smoothSolver:  Solving for Uy, Initial residual = 0.13924997, Final residual = 0.0094937806, No Iterations 2
smoothSolver:  Solving for Uz, Initial residual = 0.17926581, Final residual = 0.006427264, No Iterations 3
GAMG:  Solving for p, Initial residual = 0.21612459, Final residual = 0.0010487173, No Iterations 5
time step continuity errors : sum local = 0.0044345324, global = -1.41161e-05, cumulative = 0.00017504199
ExecutionTime = 2.403228 s  ClockTime = 3 s

Time = 9s

smoothSolver:  Solving for Ux, Initial residual = 0.055732413, Final residual = 0.0054750245, No Iterations 2
smoothSolver:  Solving for Uy, Initial residual = 0.24338686, Final residual = 0.019308253, No Iterations 2
smoothSolver:  Solving for Uz, Initial residual = 0.069281526, Final residual = 0.0024371638, No Iterations 3
GAMG:  Solving for p, Initial residual = 0.21104416, Final residual = 0.0008959263, No Iterations 6
time step continuity errors : sum local = 0.0015766658, global = -4.0628296e-05, cumulative = 0.00013441369
ExecutionTime = 2.637252 s  ClockTime = 3 s

Time = 10s

smoothSolver:  Solving for Ux, Initial residual = 0.05621947, Final residual = 0.0053051322, No Iterations 2
smoothSolver:  Solving for Uy, Initial residual = 0.39925818, Final residual = 0.029342816, No Iterations 2
smoothSolver:  Solving for Uz, Initial residual = 0.055831432, Final residual = 0.0019676967, No Iterations 3
GAMG:  Solving for p, Initial residual = 0.33234849, Final residual = 0.003007553, No Iterations 4
time step continuity errors : sum local = 0.0047255487, global = -7.8183698e-05, cumulative = 5.6229997e-05
ExecutionTime = 2.846345 s  ClockTime = 3 s

Time = 11s

smoothSolver:  Solving for Ux, Initial residual = 0.066021063, Final residual = 0.002109139, No Iterations 3
smoothSolver:  Solving for Uy, Initial residual = 0.24065575, Final residual = 0.016492473, No Iterations 2
smoothSolver:  Solving for Uz, Initial residual = 0.091181455, Final residual = 0.0032755682, No Iterations 3
GAMG:  Solving for p, Initial residual = 0.2370014, Final residual = 0.001500563, No Iterations 4
time step continuity errors : sum local = 0.0036077944, global = -8.1222554e-07, cumulative = 5.5417771e-05
ExecutionTime = 3.056825 s  ClockTime = 4 s

Time = 12s

smoothSolver:  Solving for Ux, Initial residual = 0.04273556, Final residual = 0.0014299371, No Iterations 3
smoothSolver:  Solving for Uy, Initial residual = 0.15228668, Final residual = 0.011943486, No Iterations 2
smoothSolver:  Solving for Uz, Initial residual = 0.063731902, Final residual = 0.0022894532, No Iterations 3
GAMG:  Solving for p, Initial residual = 0.18656893, Final residual = 0.0012253421, No Iterations 5
time step continuity errors : sum local = 0.002253551, global = 1.2138821e-06, cumulative = 5.6631653e-05
ExecutionTime = 3.280954 s  ClockTime = 4 s

Time = 13s

smoothSolver:  Solving for Ux, Initial residual = 0.018194604, Final residual = 0.0016749049, No Iterations 2
smoothSolver:  Solving for Uy, Initial residual = 0.30775627, Final residual = 0.025871702, No Iterations 2
smoothSolver:  Solving for Uz, Initial residual = 0.015898315, Final residual = 0.00052024754, No Iterations 3
GAMG:  Solving for p, Initial residual = 0.27642878, Final residual = 0.0010464963, No Iterations 6
time step continuity errors : sum local = 0.00067462074, global = 1.8062027e-05, cumulative = 7.4693681e-05
ExecutionTime = 3.515512 s  ClockTime = 4 s

Time = 14s

smoothSolver:  Solving for Ux, Initial residual = 0.027419306, Final residual = 0.0026672572, No Iterations 2
smoothSolver:  Solving for Uy, Initial residual = 0.34421971, Final residual = 0.026763628, No Iterations 2
smoothSolver:  Solving for Uz, Initial residual = 0.0288962, Final residual = 0.001026056, No Iterations 3
GAMG:  Solving for p, Initial residual = 0.31544503, Final residual = 0.0021348527, No Iterations 4
time step continuity errors : sum local = 0.0019061996, global = 2.1498694e-05, cumulative = 9.6192375e-05
ExecutionTime = 3.725659 s  ClockTime = 4 s

Time = 15s

smoothSolver:  Solving for Ux, Initial residual = 0.03090854, Final residual = 0.00099125782, No Iterations 3
smoothSolver:  Solving for Uy, Initial residual = 0.19136907, Final residual = 0.013764928, No Iterations 2
smoothSolver:  Solving for Uz, Initial residual = 0.042135297, Final residual = 0.0015085861, No Iterations 3
GAMG:  Solving for p, Initial residual = 0.23734301, Final residual = 0.0018359021, No Iterations 4
time step continuity errors : sum local = 0.0020548587, global = -8.0215104e-06, cumulative = 8.8170865e-05
ExecutionTime = 3.938189 s  ClockTime = 4 s

Time = 16s

smoothSolver:  Solving for Ux, Initial residual = 0.01996931, Final residual = 0.0006591324, No Iterations 3
smoothSolver:  Solving for Uy, Initial residual = 0.1495983, Final residual = 0.012789061, No Iterations 2
smoothSolver:  Solving for Uz, Initial residual = 0.027982916, Final residual = 0.00099758781, No Iterations 3
GAMG:  Solving for p, Initial residual = 0.18862828, Final residual = 0.0014663483, No Iterations 5
time step continuity errors : sum local = 0.0011016675, global = -2.9451963e-07, cumulative = 8.7876345e-05
ExecutionTime = 4.1614 s  ClockTime = 5 s

Time = 17s

smoothSolver:  Solving for Ux, Initial residual = 0.0097731626, Final residual = 0.00085722743, No Iterations 2
smoothSolver:  Solving for Uy, Initial residual = 0.28319278, Final residual = 0.024226653, No Iterations 2
smoothSolver:  Solving for Uz, Initial residual = 0.006403355, Final residual = 0.00058196954, No Iterations 2
GAMG:  Solving for p, Initial residual = 0.49353373, Final residual = 0.0040018406, No Iterations 5
time step continuity errors : sum local = 0.00077555086, global = 3.704386e-07, cumulative = 8.8246784e-05
ExecutionTime = 4.380653 s  ClockTime = 5 s

Time = 18s

smoothSolver:  Solving for Ux, Initial residual = 0.015746509, Final residual = 0.00049850772, No Iterations 3
smoothSolver:  Solving for Uy, Initial residual = 0.25534351, Final residual = 0.02029278, No Iterations 2
smoothSolver:  Solving for Uz, Initial residual = 0.017693656, Final residual = 0.00063803511, No Iterations 3
GAMG:  Solving for p, Initial residual = 0.24895537, Final residual = 0.0012807234, No Iterations 4
time step continuity errors : sum local = 0.00071895829, global = -9.6480573e-06, cumulative = 7.8598726e-05
ExecutionTime = 4.592701 s  ClockTime = 5 s

Time = 19s

smoothSolver:  Solving for Ux, Initial residual = 0.014108249, Final residual = 0.00046703455, No Iterations 3
smoothSolver:  Solving for Uy, Initial residual = 0.14304663, Final residual = 0.010929183, No Iterations 2
smoothSolver:  Solving for Uz, Initial residual = 0.019562249, Final residual = 0.00070759283, No Iterations 3
GAMG:  Solving for p, Initial residual = 0.1950069, Final residual = 0.0018499209, No Iterations 4
time step continuity errors : sum local = 0.0011031089, global = 9.8974981e-06, cumulative = 8.8496224e-05
ExecutionTime = 4.811073 s  ClockTime = 5 s

Time = 20s

smoothSolver:  Solving for Ux, Initial residual = 0.0082192854, Final residual = 0.00027673696, No Iterations 3
smoothSolver:  Solving for Uy, Initial residual = 0.13944826, Final residual = 0.012688978, No Iterations 2
smoothSolver:  Solving for Uz, Initial residual = 0.010567217, Final residual = 0.00038110293, No Iterations 3
GAMG:  Solving for p, Initial residual = 0.14462902, Final residual = 0.0013232617, No Iterations 5
time step continuity errors : sum local = 0.00051606318, global = -1.3518614e-06, cumulative = 8.7144363e-05
ExecutionTime = 5.046457 s  ClockTime = 6 s

Time = 21s

smoothSolver:  Solving for Ux, Initial residual = 0.0053914189, Final residual = 0.00049087869, No Iterations 2
smoothSolver:  Solving for Uy, Initial residual = 0.20188208, Final residual = 0.017679083, No Iterations 2
smoothSolver:  Solving for Uz, Initial residual = 0.0036627228, Final residual = 0.00035034782, No Iterations 2
GAMG:  Solving for p, Initial residual = 0.36137103, Final residual = 0.0021550568, No Iterations 5
time step continuity errors : sum local = 0.00031397395, global = -1.3572666e-08, cumulative = 8.713079e-05
ExecutionTime = 5.266018 s  ClockTime = 6 s

Time = 22s

smoothSolver:  Solving for Ux, Initial residual = 0.0074766431, Final residual = 0.00074125718, No Iterations 2
smoothSolver:  Solving for Uy, Initial residual = 0.15841154, Final residual = 0.012950042, No Iterations 2
smoothSolver:  Solving for Uz, Initial residual = 0.0088324671, Final residual = 0.00031160236, No Iterations 3
GAMG:  Solving for p, Initial residual = 0.23619031, Final residual = 0.0014010699, No Iterations 4
time step continuity errors : sum local = 0.00040598142, global = -2.7846477e-06, cumulative = 8.4346143e-05
ExecutionTime = 5.475439 s  ClockTime = 6 s

Time = 23s

smoothSolver:  Solving for Ux, Initial residual = 0.0061811566, Final residual = 0.00019794702, No Iterations 3
smoothSolver:  Solving for Uy, Initial residual = 0.089049749, Final residual = 0.0072117239, No Iterations 2
smoothSolver:  Solving for Uz, Initial residual = 0.008645913, Final residual = 0.00030550916, No Iterations 3
GAMG:  Solving for p, Initial residual = 0.18571336, Final residual = 0.00086241131, No Iterations 5
time step continuity errors : sum local = 0.00023939394, global = -3.3627447e-07, cumulative = 8.4009868e-05
ExecutionTime = 5.70054 s  ClockTime = 6 s

Time = 24s

smoothSolver:  Solving for Ux, Initial residual = 0.0035212949, Final residual = 0.00034810462, No Iterations 2
smoothSolver:  Solving for Uy, Initial residual = 0.099485131, Final residual = 0.0092196598, No Iterations 2
smoothSolver:  Solving for Uz, Initial residual = 0.0038558895, Final residual = 0.00013052265, No Iterations 3
GAMG:  Solving for p, Initial residual = 0.15280114, Final residual = 0.0014548221, No Iterations 5
time step continuity errors : sum local = 0.0002348741, global = 3.2998398e-07, cumulative = 8.4339852e-05
ExecutionTime = 5.92206 s  ClockTime = 6 s

Time = 25s

smoothSolver:  Solving for Ux, Initial residual = 0.0038577662, Final residual = 0.00012159486, No Iterations 3
smoothSolver:  Solving for Uy, Initial residual = 0.119451, Final residual = 0.010629707, No Iterations 2
smoothSolver:  Solving for Uz, Initial residual = 0.0032425457, Final residual = 0.00011263471, No Iterations 3
GAMG:  Solving for p, Initial residual = 0.15744812, Final residual = 0.00066644961, No Iterations 5
time step continuity errors : sum local = 0.00012221502, global = -7.4981364e-07, cumulative = 8.3590039e-05
ExecutionTime = 6.145269 s  ClockTime = 7 s

Time = 26s

smoothSolver:  Solving for Ux, Initial residual = 0.0042787233, Final residual = 0.0001422581, No Iterations 3
smoothSolver:  Solving for Uy, Initial residual = 0.087863671, Final residual = 0.0075436578, No Iterations 2
smoothSolver:  Solving for Uz, Initial residual = 0.0050609805, Final residual = 0.00018384377, No Iterations 3
GAMG:  Solving for p, Initial residual = 0.13665462, Final residual = 0.0010189026, No Iterations 4
time step continuity errors : sum local = 0.00024370438, global = 4.8815071e-07, cumulative = 8.4078189e-05
ExecutionTime = 6.357063 s  ClockTime = 7 s

Time = 27s

smoothSolver:  Solving for Ux, Initial residual = 0.0034171513, Final residual = 0.00011720992, No Iterations 3
smoothSolver:  Solving for Uy, Initial residual = 0.056205991, Final residual = 0.005187538, No Iterations 2
smoothSolver:  Solving for Uz, Initial residual = 0.0043292258, Final residual = 0.0001569656, No Iterations 3
GAMG:  Solving for p, Initial residual = 0.099351115, Final residual = 0.00055501764, No Iterations 5
time step continuity errors : sum local = 0.00012385296, global = -2.8519426e-07, cumulative = 8.3792995e-05
ExecutionTime = 6.581502 s  ClockTime = 7 s

Time = 28s

smoothSolver:  Solving for Ux, Initial residual = 0.0026139846, Final residual = 8.6029517e-05, No Iterations 3
smoothSolver:  Solving for Uy, Initial residual = 0.063819275, Final residual = 0.0061278361, No Iterations 2
smoothSolver:  Solving for Uz, Initial residual = 0.0025226044, Final residual = 8.7649321e-05, No Iterations 3
GAMG:  Solving for p, Initial residual = 0.075078479, Final residual = 0.00063901293, No Iterations 5
time step continuity errors : sum local = 0.00010596011, global = -2.4922793e-07, cumulative = 8.3543767e-05
ExecutionTime = 6.804023 s  ClockTime = 7 s

Time = 29s

smoothSolver:  Solving for Ux, Initial residual = 0.0022752956, Final residual = 0.00022454074, No Iterations 2
smoothSolver:  Solving for Uy, Initial residual = 0.065546354, Final residual = 0.0060316499, No Iterations 2
smoothSolver:  Solving for Uz, Initial residual = 0.0020061843, Final residual = 6.5478737e-05, No Iterations 3
GAMG:  Solving for p, Initial residual = 0.14225603, Final residual = 0.0010972328, No Iterations 4
time step continuity errors : sum local = 0.00012692017, global = 9.7663405e-07, cumulative = 8.4520401e-05
ExecutionTime = 7.012848 s  ClockTime = 8 s

Time = 30s

smoothSolver:  Solving for Ux, Initial residual = 0.0020934925, Final residual = 0.00020876661, No Iterations 2
smoothSolver:  Solving for Uy, Initial residual = 0.047742728, Final residual = 0.0043674013, No Iterations 2
smoothSolver:  Solving for Uz, Initial residual = 0.002368442, Final residual = 8.0352566e-05, No Iterations 3
GAMG:  Solving for p, Initial residual = 0.12525066, Final residual = 0.00096686373, No Iterations 4
time step continuity errors : sum local = 0.00012702471, global = -2.3593545e-07, cumulative = 8.4284466e-05
ExecutionTime = 7.22249 s  ClockTime = 8 s

Time = 31s

smoothSolver:  Solving for Ux, Initial residual = 0.0018394768, Final residual = 5.9139098e-05, No Iterations 3
smoothSolver:  Solving for Uy, Initial residual = 0.03693565, Final residual = 0.0036371331, No Iterations 2
smoothSolver:  Solving for Uz, Initial residual = 0.001923503, Final residual = 6.4590853e-05, No Iterations 3
GAMG:  Solving for p, Initial residual = 0.092291508, Final residual = 0.00050640102, No Iterations 5
time step continuity errors : sum local = 5.9772866e-05, global = -1.1452835e-07, cumulative = 8.4169937e-05
ExecutionTime = 7.445541 s  ClockTime = 8 s

Time = 32s

smoothSolver:  Solving for Ux, Initial residual = 0.0019747533, Final residual = 6.5184578e-05, No Iterations 3
smoothSolver:  Solving for Uy, Initial residual = 0.041297279, Final residual = 0.0040854546, No Iterations 2
smoothSolver:  Solving for Uz, Initial residual = 0.0017951728, Final residual = 6.1382167e-05, No Iterations 3
GAMG:  Solving for p, Initial residual = 0.056408772, Final residual = 0.00033326593, No Iterations 5
time step continuity errors : sum local = 4.533593e-05, global = -2.2476154e-07, cumulative = 8.3945176e-05
ExecutionTime = 7.668136 s  ClockTime = 8 s

Time = 33s

smoothSolver:  Solving for Ux, Initial residual = 0.0021096223, Final residual = 7.0823002e-05, No Iterations 3
smoothSolver:  Solving for Uy, Initial residual = 0.039707022, Final residual = 0.0038724343, No Iterations 2
smoothSolver:  Solving for Uz, Initial residual = 0.0021441363, Final residual = 7.5415225e-05, No Iterations 3
GAMG:  Solving for p, Initial residual = 0.058226331, Final residual = 0.00037953824, No Iterations 4
time step continuity errors : sum local = 6.0234848e-05, global = -6.0553429e-07, cumulative = 8.3339641e-05
ExecutionTime = 7.880052 s  ClockTime = 8 s

Time = 34s

smoothSolver:  Solving for Ux, Initial residual = 0.0020192493, Final residual = 6.8922628e-05, No Iterations 3
smoothSolver:  Solving for Uy, Initial residual = 0.031887572, Final residual = 0.0010028303, No Iterations 3
smoothSolver:  Solving for Uz, Initial residual = 0.0022224987, Final residual = 7.8670896e-05, No Iterations 3
GAMG:  Solving for p, Initial residual = 0.051362209, Final residual = 0.00045209812, No Iterations 4
time step continuity errors : sum local = 7.449894e-05, global = 4.5620737e-07, cumulative = 8.3795849e-05
ExecutionTime = 8.092551 s  ClockTime = 9 s

Time = 35s

smoothSolver:  Solving for Ux, Initial residual = 0.0018632665, Final residual = 6.3677207e-05, No Iterations 3
smoothSolver:  Solving for Uy, Initial residual = 0.028371208, Final residual = 0.00092909345, No Iterations 3
smoothSolver:  Solving for Uz, Initial residual = 0.0020104779, Final residual = 7.0576208e-05, No Iterations 3
GAMG:  Solving for p, Initial residual = 0.038501353, Final residual = 0.00019940819, No Iterations 5
time step continuity errors : sum local = 3.1336813e-05, global = -6.7356011e-08, cumulative = 8.3728493e-05
ExecutionTime = 8.318045 s  ClockTime = 9 s

Time = 36s

smoothSolver:  Solving for Ux, Initial residual = 0.0017397747, Final residual = 5.8466145e-05, No Iterations 3
smoothSolver:  Solving for Uy, Initial residual = 0.02877809, Final residual = 0.00092718666, No Iterations 3
smoothSolver:  Solving for Uz, Initial residual = 0.0017483076, Final residual = 6.048982e-05, No Iterations 3
GAMG:  Solving for p, Initial residual = 0.039019168, Final residual = 0.00015897043, No Iterations 5
time step continuity errors : sum local = 2.2945721e-05, global = 4.4099704e-08, cumulative = 8.3772593e-05
ExecutionTime = 8.542166 s  ClockTime = 9 s

Time = 37s

smoothSolver:  Solving for Ux, Initial residual = 0.0016450544, Final residual = 5.4766736e-05, No Iterations 3
smoothSolver:  Solving for Uy, Initial residual = 0.02682316, Final residual = 0.00086143728, No Iterations 3
smoothSolver:  Solving for Uz, Initial residual = 0.001613377, Final residual = 5.5301418e-05, No Iterations 3
GAMG:  Solving for p, Initial residual = 0.046107751, Final residual = 0.00027657283, No Iterations 4
time step continuity errors : sum local = 3.7615174e-05, global = 2.5544345e-07, cumulative = 8.4028036e-05
ExecutionTime = 8.755408 s  ClockTime = 9 s

Time = 38s

smoothSolver:  Solving for Ux, Initial residual = 0.0015930015, Final residual = 5.3351973e-05, No Iterations 3
smoothSolver:  Solving for Uy, Initial residual = 0.023998032, Final residual = 0.0007924204, No Iterations 3
smoothSolver:  Solving for Uz, Initial residual = 0.0015808624, Final residual = 5.4229463e-05, No Iterations 3
GAMG:  Solving for p, Initial residual = 0.041688417, Final residual = 0.00035738768, No Iterations 4
time step continuity errors : sum local = 4.8525289e-05, global = -9.4994828e-08, cumulative = 8.3933041e-05
ExecutionTime = 8.968476 s  ClockTime = 10 s

Time = 39s

smoothSolver:  Solving for Ux, Initial residual = 0.0015998939, Final residual = 5.400391e-05, No Iterations 3
smoothSolver:  Solving for Uy, Initial residual = 0.023331415, Final residual = 0.00078098828, No Iterations 3
smoothSolver:  Solving for Uz, Initial residual = 0.0016033541, Final residual = 5.5345184e-05, No Iterations 3
GAMG:  Solving for p, Initial residual = 0.033166418, Final residual = 0.00032692823, No Iterations 4
time step continuity errors : sum local = 4.6094109e-05, global = -1.2898529e-07, cumulative = 8.3804056e-05
ExecutionTime = 9.196235 s  ClockTime = 10 s

Time = 40s

smoothSolver:  Solving for Ux, Initial residual = 0.0016226398, Final residual = 5.5071386e-05, No Iterations 3
smoothSolver:  Solving for Uy, Initial residual = 0.023203396, Final residual = 0.00077373535, No Iterations 3
smoothSolver:  Solving for Uz, Initial residual = 0.0016592868, Final residual = 5.772241e-05, No Iterations 3
GAMG:  Solving for p, Initial residual = 0.030268119, Final residual = 0.00025532098, No Iterations 4
time step continuity errors : sum local = 3.7706525e-05, global = -1.7188758e-07, cumulative = 8.3632168e-05
ExecutionTime = 9.41028 s  ClockTime = 10 s

Time = 41s

smoothSolver:  Solving for Ux, Initial residual = 0.0016146147, Final residual = 5.5057549e-05, No Iterations 3
smoothSolver:  Solving for Uy, Initial residual = 0.022091056, Final residual = 0.00073937278, No Iterations 3
smoothSolver:  Solving for Uz, Initial residual = 0.0016905761, Final residual = 5.9079318e-05, No Iterations 3
GAMG:  Solving for p, Initial residual = 0.029644834, Final residual = 0.00021884018, No Iterations 4
time step continuity errors : sum local = 3.3245786e-05, global = 2.6273157e-07, cumulative = 8.38949e-05
ExecutionTime = 9.623188 s  ClockTime = 10 s

Time = 42s

smoothSolver:  Solving for Ux, Initial residual = 0.0015801148, Final residual = 5.4030074e-05, No Iterations 3
smoothSolver:  Solving for Uy, Initial residual = 0.020835554, Final residual = 0.00070374208, No Iterations 3
smoothSolver:  Solving for Uz, Initial residual = 0.0016680094, Final residual = 5.831307e-05, No Iterations 3
GAMG:  Solving for p, Initial residual = 0.027691844, Final residual = 0.00026538126, No Iterations 4
time step continuity errors : sum local = 4.0515593e-05, global = 2.1861868e-07, cumulative = 8.4113519e-05
ExecutionTime = 9.834519 s  ClockTime = 10 s

Time = 43s

smoothSolver:  Solving for Ux, Initial residual = 0.0015375792, Final residual = 5.2499048e-05, No Iterations 3
smoothSolver:  Solving for Uy, Initial residual = 0.020148618, Final residual = 0.00068185541, No Iterations 3
smoothSolver:  Solving for Uz, Initial residual = 0.0016076326, Final residual = 5.6050445e-05, No Iterations 3
GAMG:  Solving for p, Initial residual = 0.026376063, Final residual = 0.00025592388, No Iterations 4
time step continuity errors : sum local = 3.8609156e-05, global = 2.0501278e-07, cumulative = 8.4318531e-05
ExecutionTime = 10.047685 s  ClockTime = 11 s

Time = 44s

smoothSolver:  Solving for Ux, Initial residual = 0.0015013804, Final residual = 5.1125222e-05, No Iterations 3
smoothSolver:  Solving for Uy, Initial residual = 0.019632885, Final residual = 0.00066291344, No Iterations 3
smoothSolver:  Solving for Uz, Initial residual = 0.0015459453, Final residual = 5.3723602e-05, No Iterations 3
GAMG:  Solving for p, Initial residual = 0.026944586, Final residual = 0.00023461424, No Iterations 4
time step continuity errors : sum local = 3.4878067e-05, global = 2.9008489e-07, cumulative = 8.4608616e-05
ExecutionTime = 10.263164 s  ClockTime = 11 s

Time = 45s

smoothSolver:  Solving for Ux, Initial residual = 0.0014763926, Final residual = 5.0246871e-05, No Iterations 3
smoothSolver:  Solving for Uy, Initial residual = 0.018999372, Final residual = 0.00064300987, No Iterations 3
smoothSolver:  Solving for Uz, Initial residual = 0.0015070513, Final residual = 5.2288654e-05, No Iterations 3
GAMG:  Solving for p, Initial residual = 0.026998147, Final residual = 0.00025691993, No Iterations 3
time step continuity errors : sum local = 3.7979931e-05, global = 1.3802244e-07, cumulative = 8.4746639e-05
ExecutionTime = 10.465848 s  ClockTime = 11 s

Time = 46s

smoothSolver:  Solving for Ux, Initial residual = 0.001461001, Final residual = 4.9802583e-05, No Iterations 3
smoothSolver:  Solving for Uy, Initial residual = 0.018437043, Final residual = 0.00062651806, No Iterations 3
smoothSolver:  Solving for Uz, Initial residual = 0.0014893066, Final residual = 5.1712648e-05, No Iterations 3
GAMG:  Solving for p, Initial residual = 0.025791111, Final residual = 0.00021937611, No Iterations 4
time step continuity errors : sum local = 3.2606915e-05, global = -1.9606162e-07, cumulative = 8.4550577e-05
ExecutionTime = 10.679736 s  ClockTime = 11 s

Time = 47s

smoothSolver:  Solving for Ux, Initial residual = 0.0014554275, Final residual = 4.9709793e-05, No Iterations 3
smoothSolver:  Solving for Uy, Initial residual = 0.018047463, Final residual = 0.00061417511, No Iterations 3
smoothSolver:  Solving for Uz, Initial residual = 0.0014828764, Final residual = 5.157726e-05, No Iterations 3
GAMG:  Solving for p, Initial residual = 0.024570204, Final residual = 0.00021157272, No Iterations 4
time step continuity errors : sum local = 3.1815365e-05, global = -1.9693931e-07, cumulative = 8.4353638e-05
ExecutionTime = 10.893736 s  ClockTime = 11 s

Time = 48s

smoothSolver:  Solving for Ux, Initial residual = 0.0014493231, Final residual = 4.9590286e-05, No Iterations 3
smoothSolver:  Solving for Uy, Initial residual = 0.017627171, Final residual = 0.00059975212, No Iterations 3
smoothSolver:  Solving for Uz, Initial residual = 0.0014798712, Final residual = 5.157713e-05, No Iterations 3
GAMG:  Solving for p, Initial residual = 0.023861401, Final residual = 0.00017241109, No Iterations 4
time step continuity errors : sum local = 2.625883e-05, global = -1.0109752e-07, cumulative = 8.425254e-05
ExecutionTime = 11.108251 s  ClockTime = 12 s

Time = 49s

smoothSolver:  Solving for Ux, Initial residual = 0.0014376326, Final residual = 4.9247614e-05, No Iterations 3
smoothSolver:  Solving for Uy, Initial residual = 0.017123858, Final residual = 0.00058306869, No Iterations 3
smoothSolver:  Solving for Uz, Initial residual = 0.0014703772, Final residual = 5.1320269e-05, No Iterations 3
GAMG:  Solving for p, Initial residual = 0.023377893, Final residual = 0.00021528979, No Iterations 3
time step continuity errors : sum local = 3.3076128e-05, global = 5.3575533e-07, cumulative = 8.4788296e-05
ExecutionTime = 11.310258 s  ClockTime = 12 s

Time = 50s

smoothSolver:  Solving for Ux, Initial residual = 0.0014224677, Final residual = 4.8756308e-05, No Iterations 3
smoothSolver:  Solving for Uy, Initial residual = 0.016617352, Final residual = 0.00056634695, No Iterations 3
smoothSolver:  Solving for Uz, Initial residual = 0.0014532696, Final residual = 5.0771724e-05, No Iterations 3
GAMG:  Solving for p, Initial residual = 0.022881583, Final residual = 0.00021974374, No Iterations 4
time step continuity errors : sum local = 3.3928345e-05, global = 3.2569734e-07, cumulative = 8.5113993e-05
ExecutionTime = 11.523667 s  ClockTime = 12 s

Time = 51s

smoothSolver:  Solving for Ux, Initial residual = 0.0014056588, Final residual = 4.8144232e-05, No Iterations 3
smoothSolver:  Solving for Uy, Initial residual = 0.016194242, Final residual = 0.0005519497, No Iterations 3
smoothSolver:  Solving for Uz, Initial residual = 0.0014289564, Final residual = 4.9912976e-05, No Iterations 3
GAMG:  Solving for p, Initial residual = 0.022659463, Final residual = 0.00022206565, No Iterations 4
time step continuity errors : sum local = 3.4298333e-05, global = 3.2119172e-07, cumulative = 8.5435185e-05
ExecutionTime = 11.738383 s  ClockTime = 12 s

Time = 52s

smoothSolver:  Solving for Ux, Initial residual = 0.0013901531, Final residual = 4.7566474e-05, No Iterations 3
smoothSolver:  Solving for Uy, Initial residual = 0.015817044, Final residual = 0.00053899398, No Iterations 3
smoothSolver:  Solving for Uz, Initial residual = 0.0014032131, Final residual = 4.8993397e-05, No Iterations 3
GAMG:  Solving for p, Initial residual = 0.022580748, Final residual = 0.00020736818, No Iterations 4
time step continuity errors : sum local = 3.2000484e-05, global = 2.5043428e-07, cumulative = 8.5685619e-05
ExecutionTime = 11.95368 s  ClockTime = 13 s

Time = 53s

smoothSolver:  Solving for Ux, Initial residual = 0.0013775711, Final residual = 4.711264e-05, No Iterations 3
smoothSolver:  Solving for Uy, Initial residual = 0.015451994, Final residual = 0.00052676746, No Iterations 3
smoothSolver:  Solving for Uz, Initial residual = 0.0013812936, Final residual = 4.8225534e-05, No Iterations 3
GAMG:  Solving for p, Initial residual = 0.022404627, Final residual = 0.00019022361, No Iterations 3
time step continuity errors : sum local = 2.9383014e-05, global = 5.1882816e-07, cumulative = 8.6204447e-05
ExecutionTime = 12.156889 s  ClockTime = 13 s

Time = 54s

smoothSolver:  Solving for Ux, Initial residual = 0.0013667588, Final residual = 4.675047e-05, No Iterations 3
smoothSolver:  Solving for Uy, Initial residual = 0.01508814, Final residual = 0.00051467822, No Iterations 3
smoothSolver:  Solving for Uz, Initial residual = 0.0013654829, Final residual = 4.7707851e-05, No Iterations 3
GAMG:  Solving for p, Initial residual = 0.021987538, Final residual = 0.00019325957, No Iterations 3
time step continuity errors : sum local = 2.9983645e-05, global = 2.5812075e-07, cumulative = 8.6462568e-05
ExecutionTime = 12.357174 s  ClockTime = 13 s

Time = 55s

smoothSolver:  Solving for Ux, Initial residual = 0.0013574863, Final residual = 4.6443798e-05, No Iterations 3
smoothSolver:  Solving for Uy, Initial residual = 0.014744409, Final residual = 0.00050313013, No Iterations 3
smoothSolver:  Solving for Uz, Initial residual = 0.0013507658, Final residual = 4.7220209e-05, No Iterations 3
GAMG:  Solving for p, Initial residual = 0.021610238, Final residual = 0.0002076872, No Iterations 3
time step continuity errors : sum local = 3.2380659e-05, global = 1.3605199e-07, cumulative = 8.659862e-05
ExecutionTime = 12.559181 s  ClockTime = 13 s

Time = 56s

smoothSolver:  Solving for Ux, Initial residual = 0.0013492728, Final residual = 4.6175639e-05, No Iterations 3
smoothSolver:  Solving for Uy, Initial residual = 0.014410745, Final residual = 0.00049200168, No Iterations 3
smoothSolver:  Solving for Uz, Initial residual = 0.0013365142, Final residual = 4.6743477e-05, No Iterations 3
GAMG:  Solving for p, Initial residual = 0.021268968, Final residual = 0.0001189419, No Iterations 4
time step continuity errors : sum local = 1.8636975e-05, global = 1.160173e-07, cumulative = 8.6714637e-05
ExecutionTime = 12.771552 s  ClockTime = 13 s

Time = 57s

smoothSolver:  Solving for Ux, Initial residual = 0.0013424435, Final residual = 4.5967884e-05, No Iterations 3
smoothSolver:  Solving for Uy, Initial residual = 0.01409051, Final residual = 0.00048124323, No Iterations 3
smoothSolver:  Solving for Uz, Initial residual = 0.0013227494, Final residual = 4.6278188e-05, No Iterations 3
GAMG:  Solving for p, Initial residual = 0.020982383, Final residual = 0.00019177781, No Iterations 3
time step continuity errors : sum local = 3.0195081e-05, global = 4.1818582e-07, cumulative = 8.7132823e-05
ExecutionTime = 12.971987 s  ClockTime = 14 s

Time = 58s

smoothSolver:  Solving for Ux, Initial residual = 0.0013332395, Final residual = 4.5679835e-05, No Iterations 3
smoothSolver:  Solving for Uy, Initial residual = 0.013762309, Final residual = 0.00047053443, No Iterations 3
smoothSolver:  Solving for Uz, Initial residual = 0.0013091223, Final residual = 4.5823894e-05, No Iterations 3
GAMG:  Solving for p, Initial residual = 0.020635522, Final residual = 0.00020001514, No Iterations 3
time step continuity errors : sum local = 3.1635853e-05, global = 6.6729886e-07, cumulative = 8.7800122e-05
ExecutionTime = 13.171821 s  ClockTime = 14 s

Time = 59s

smoothSolver:  Solving for Ux, Initial residual = 0.0013237939, Final residual = 4.538411e-05, No Iterations 3
smoothSolver:  Solving for Uy, Initial residual = 0.013450319, Final residual = 0.00046031143, No Iterations 3
smoothSolver:  Solving for Uz, Initial residual = 0.0012954093, Final residual = 4.5365861e-05, No Iterations 3
GAMG:  Solving for p, Initial residual = 0.020306921, Final residual = 0.00017372807, No Iterations 4
time step continuity errors : sum local = 2.7589236e-05, global = 3.221559e-07, cumulative = 8.8122278e-05
ExecutionTime = 13.38419 s  ClockTime = 14 s

Time = 60s

smoothSolver:  Solving for Ux, Initial residual = 0.0013138674, Final residual = 4.5048625e-05, No Iterations 3
smoothSolver:  Solving for Uy, Initial residual = 0.013155937, Final residual = 0.00045062949, No Iterations 3
smoothSolver:  Solving for Uz, Initial residual = 0.0012801878, Final residual = 4.4841569e-05, No Iterations 3
GAMG:  Solving for p, Initial residual = 0.020095289, Final residual = 0.00017301727, No Iterations 4
time step continuity errors : sum local = 2.7541539e-05, global = 2.8308557e-07, cumulative = 8.8405363e-05
ExecutionTime = 13.594942 s  ClockTime = 14 s

Time = 61s

smoothSolver:  Solving for Ux, Initial residual = 0.0013039099, Final residual = 4.4699812e-05, No Iterations 3
smoothSolver:  Solving for Uy, Initial residual = 0.012866898, Final residual = 0.00044116347, No Iterations 3
smoothSolver:  Solving for Uz, Initial residual = 0.0012644986, Final residual = 4.4307783e-05, No Iterations 3
GAMG:  Solving for p, Initial residual = 0.019922878, Final residual = 0.00018616123, No Iterations 3
time step continuity errors : sum local = 2.9700544e-05, global = 6.618047e-07, cumulative = 8.9067168e-05
ExecutionTime = 13.798063 s  ClockTime = 14 s

Time = 62s

smoothSolver:  Solving for Ux, Initial residual = 0.0012942223, Final residual = 4.4376002e-05, No Iterations 3
smoothSolver:  Solving for Uy, Initial residual = 0.012574655, Final residual = 0.00043172041, No Iterations 3
smoothSolver:  Solving for Uz, Initial residual = 0.0012506479, Final residual = 4.3854272e-05, No Iterations 3
GAMG:  Solving for p, Initial residual = 0.019621123, Final residual = 0.0001901591, No Iterations 3
time step continuity errors : sum local = 3.0449444e-05, global = 6.0944284e-07, cumulative = 8.9676611e-05
ExecutionTime = 13.998807 s  ClockTime = 15 s

Time = 63s

smoothSolver:  Solving for Ux, Initial residual = 0.0012857246, Final residual = 4.4102566e-05, No Iterations 3
smoothSolver:  Solving for Uy, Initial residual = 0.012297768, Final residual = 0.00042258769, No Iterations 3
smoothSolver:  Solving for Uz, Initial residual = 0.0012369644, Final residual = 4.340593e-05, No Iterations 3
GAMG:  Solving for p, Initial residual = 0.019382682, Final residual = 0.0001464154, No Iterations 4
time step continuity errors : sum local = 2.3530067e-05, global = 2.5030663e-07, cumulative = 8.9926917e-05
ExecutionTime = 14.2096 s  ClockTime = 15 s

Time = 64s

smoothSolver:  Solving for Ux, Initial residual = 0.0012791853, Final residual = 4.3911319e-05, No Iterations 3
smoothSolver:  Solving for Uy, Initial residual = 0.012044511, Final residual = 0.0004141703, No Iterations 3
smoothSolver:  Solving for Uz, Initial residual = 0.001222385, Final residual = 4.2908773e-05, No Iterations 3
GAMG:  Solving for p, Initial residual = 0.019223015, Final residual = 0.00018579026, No Iterations 3
time step continuity errors : sum local = 2.9938369e-05, global = 4.9853642e-07, cumulative = 9.0425454e-05
ExecutionTime = 14.411154 s  ClockTime = 15 s

Time = 65s

smoothSolver:  Solving for Ux, Initial residual = 0.0012714865, Final residual = 4.3704928e-05, No Iterations 3
smoothSolver:  Solving for Uy, Initial residual = 0.011795912, Final residual = 0.00040601077, No Iterations 3
smoothSolver:  Solving for Uz, Initial residual = 0.0012097381, Final residual = 4.2489605e-05, No Iterations 3
GAMG:  Solving for p, Initial residual = 0.01898006, Final residual = 0.00012382981, No Iterations 4
time step continuity errors : sum local = 2.0025681e-05, global = 2.5576453e-07, cumulative = 9.0681218e-05
ExecutionTime = 14.625079 s  ClockTime = 15 s

Time = 66s

smoothSolver:  Solving for Ux, Initial residual = 0.0012648213, Final residual = 4.3540827e-05, No Iterations 3
smoothSolver:  Solving for Uy, Initial residual = 0.011553249, Final residual = 0.00039801741, No Iterations 3
smoothSolver:  Solving for Uz, Initial residual = 0.0011963089, Final residual = 4.2036647e-05, No Iterations 3
GAMG:  Solving for p, Initial residual = 0.018810211, Final residual = 0.00017462975, No Iterations 3
time step continuity errors : sum local = 2.832574e-05, global = 4.7621933e-07, cumulative = 9.1157438e-05
ExecutionTime = 14.826833 s  ClockTime = 15 s

Time = 67s

smoothSolver:  Solving for Ux, Initial residual = 0.0012565344, Final residual = 4.3322227e-05, No Iterations 3
smoothSolver:  Solving for Uy, Initial residual = 0.011302038, Final residual = 0.00038966592, No Iterations 3
smoothSolver:  Solving for Uz, Initial residual = 0.0011839868, Final residual = 4.1641389e-05, No Iterations 3
GAMG:  Solving for p, Initial residual = 0.018567882, Final residual = 0.00017971795, No Iterations 3
time step continuity errors : sum local = 2.9254781e-05, global = 5.3053208e-07, cumulative = 9.168797e-05
ExecutionTime = 15.028523 s  ClockTime = 16 s

Time = 68s

smoothSolver:  Solving for Ux, Initial residual = 0.0012484272, Final residual = 4.3112356e-05, No Iterations 3
smoothSolver:  Solving for Uy, Initial residual = 0.011054768, Final residual = 0.00038139272, No Iterations 3
smoothSolver:  Solving for Uz, Initial residual = 0.0011717433, Final residual = 4.1255078e-05, No Iterations 3
GAMG:  Solving for p, Initial residual = 0.018337244, Final residual = 0.0001326321, No Iterations 4
time step continuity errors : sum local = 2.1665181e-05, global = 2.7857011e-07, cumulative = 9.196654e-05
ExecutionTime = 15.241035 s  ClockTime = 16 s

Time = 69s

smoothSolver:  Solving for Ux, Initial residual = 0.0012408459, Final residual = 4.291451e-05, No Iterations 3
smoothSolver:  Solving for Uy, Initial residual = 0.010823889, Final residual = 0.00037366346, No Iterations 3
smoothSolver:  Solving for Uz, Initial residual = 0.0011592354, Final residual = 4.0850438e-05, No Iterations 3
GAMG:  Solving for p, Initial residual = 0.01818517, Final residual = 0.00017586047, No Iterations 3
time step continuity errors : sum local = 2.8803069e-05, global = 5.9135022e-07, cumulative = 9.255789e-05
ExecutionTime = 15.442268 s  ClockTime = 16 s

Time = 70s

smoothSolver:  Solving for Ux, Initial residual = 0.00123281, Final residual = 4.2708003e-05, No Iterations 3
smoothSolver:  Solving for Uy, Initial residual = 0.010607322, Final residual = 0.0003665696, No Iterations 3
smoothSolver:  Solving for Uz, Initial residual = 0.0011476635, Final residual = 4.0488553e-05, No Iterations 3
GAMG:  Solving for p, Initial residual = 0.017969065, Final residual = 0.00012664044, No Iterations 4
time step continuity errors : sum local = 2.0812216e-05, global = 3.0854507e-07, cumulative = 9.2866435e-05
ExecutionTime = 15.655731 s  ClockTime = 16 s

Time = 71s

smoothSolver:  Solving for Ux, Initial residual = 0.0012257805, Final residual = 4.2534699e-05, No Iterations 3
smoothSolver:  Solving for Uy, Initial residual = 0.010415462, Final residual = 0.00036025656, No Iterations 3
smoothSolver:  Solving for Uz, Initial residual = 0.0011357688, Final residual = 4.0099905e-05, No Iterations 3
GAMG:  Solving for p, Initial residual = 0.017821656, Final residual = 0.0001692095, No Iterations 3
time step continuity errors : sum local = 2.7883448e-05, global = 5.5699636e-07, cumulative = 9.3423432e-05
ExecutionTime = 15.859593 s  ClockTime = 16 s

Time = 72s

smoothSolver:  Solving for Ux, Initial residual = 0.0012180578, Final residual = 4.2342455e-05, No Iterations 3
smoothSolver:  Solving for Uy, Initial residual = 0.01023219, Final residual = 0.00035427287, No Iterations 3
smoothSolver:  Solving for Uz, Initial residual = 0.0011246882, Final residual = 3.9748606e-05, No Iterations 3
GAMG:  Solving for p, Initial residual = 0.017613516, Final residual = 0.00011694582, No Iterations 4
time step continuity errors : sum local = 1.9335184e-05, global = 3.0211105e-07, cumulative = 9.3725543e-05
ExecutionTime = 16.070742 s  ClockTime = 17 s

Time = 73s

smoothSolver:  Solving for Ux, Initial residual = 0.0012117451, Final residual = 4.2191369e-05, No Iterations 3
smoothSolver:  Solving for Uy, Initial residual = 0.010058736, Final residual = 0.00034852428, No Iterations 3
smoothSolver:  Solving for Uz, Initial residual = 0.001112874, Final residual = 3.9359162e-05, No Iterations 3
GAMG:  Solving for p, Initial residual = 0.017473489, Final residual = 0.00016689354, No Iterations 3
time step continuity errors : sum local = 2.7668933e-05, global = 4.9605593e-07, cumulative = 9.4221599e-05
ExecutionTime = 16.271459 s  ClockTime = 17 s

Time = 74s

smoothSolver:  Solving for Ux, Initial residual = 0.0012043325, Final residual = 4.1989689e-05, No Iterations 3
smoothSolver:  Solving for Uy, Initial residual = 0.0098737275, Final residual = 0.00034249832, No Iterations 3
smoothSolver:  Solving for Uz, Initial residual = 0.0011019052, Final residual = 3.9004737e-05, No Iterations 3
GAMG:  Solving for p, Initial residual = 0.017261906, Final residual = 0.00011318364, No Iterations 4
time step continuity errors : sum local = 1.8824857e-05, global = 2.5563947e-07, cumulative = 9.4477238e-05
ExecutionTime = 16.484498 s  ClockTime = 17 s

Time = 75s

smoothSolver:  Solving for Ux, Initial residual = 0.0011980297, Final residual = 4.1821305e-05, No Iterations 3
smoothSolver:  Solving for Uy, Initial residual = 0.0096882005, Final residual = 0.00033637857, No Iterations 3
smoothSolver:  Solving for Uz, Initial residual = 0.0010901397, Final residual = 3.8610366e-05, No Iterations 3
GAMG:  Solving for p, Initial residual = 0.01713966, Final residual = 0.00016447385, No Iterations 3
time step continuity errors : sum local = 2.7426377e-05, global = 4.4776938e-07, cumulative = 9.4925007e-05
ExecutionTime = 16.685239 s  ClockTime = 17 s

Time = 76s

smoothSolver:  Solving for Ux, Initial residual = 0.0011906824, Final residual = 4.1610067e-05, No Iterations 3
smoothSolver:  Solving for Uy, Initial residual = 0.0095066408, Final residual = 0.00033032056, No Iterations 3
smoothSolver:  Solving for Uz, Initial residual = 0.0010794123, Final residual = 3.8264633e-05, No Iterations 3
GAMG:  Solving for p, Initial residual = 0.016969366, Final residual = 0.00011064464, No Iterations 4
time step continuity errors : sum local = 1.8507223e-05, global = 2.3167088e-07, cumulative = 9.5156678e-05
ExecutionTime = 16.898021 s  ClockTime = 18 s

Time = 77s

smoothSolver:  Solving for Ux, Initial residual = 0.0011841509, Final residual = 4.1410031e-05, No Iterations 3
smoothSolver:  Solving for Uy, Initial residual = 0.0093388126, Final residual = 0.0003247731, No Iterations 3
smoothSolver:  Solving for Uz, Initial residual = 0.0010682993, Final residual = 3.7895826e-05, No Iterations 3
GAMG:  Solving for p, Initial residual = 0.016818841, Final residual = 0.00015946209, No Iterations 3
time step continuity errors : sum local = 2.6740894e-05, global = 4.2311866e-07, cumulative = 9.5579797e-05
ExecutionTime = 17.09866 s  ClockTime = 18 s

Time = 78s

smoothSolver:  Solving for Ux, Initial residual = 0.0011767588, Final residual = 4.1166379e-05, No Iterations 3
smoothSolver:  Solving for Uy, Initial residual = 0.0091820582, Final residual = 0.00031953687, No Iterations 3
smoothSolver:  Solving for Uz, Initial residual = 0.0010582191, Final residual = 3.7570799e-05, No Iterations 3
GAMG:  Solving for p, Initial residual = 0.01663268, Final residual = 0.00016592485, No Iterations 3
time step continuity errors : sum local = 2.7910275e-05, global = 4.4059436e-07, cumulative = 9.6020391e-05
ExecutionTime = 17.301715 s  ClockTime = 18 s

Time = 79s

smoothSolver:  Solving for Ux, Initial residual = 0.0011698086, Final residual = 4.0934265e-05, No Iterations 3
smoothSolver:  Solving for Uy, Initial residual = 0.0090379048, Final residual = 0.00031472383, No Iterations 3
smoothSolver:  Solving for Uz, Initial residual = 0.0010482385, Final residual = 3.7244201e-05, No Iterations 3
GAMG:  Solving for p, Initial residual = 0.016465348, Final residual = 0.00011508826, No Iterations 4
time step continuity errors : sum local = 1.941639e-05, global = 2.3051924e-07, cumulative = 9.625091e-05
ExecutionTime = 17.515921 s  ClockTime = 18 s

Time = 80s

smoothSolver:  Solving for Ux, Initial residual = 0.0011635747, Final residual = 4.0730723e-05, No Iterations 3
smoothSolver:  Solving for Uy, Initial residual = 0.0089125129, Final residual = 0.00031049698, No Iterations 3
smoothSolver:  Solving for Uz, Initial residual = 0.0010378767, Final residual = 3.6894642e-05, No Iterations 3
GAMG:  Solving for p, Initial residual = 0.016368496, Final residual = 0.00016189119, No Iterations 3
time step continuity errors : sum local = 2.7375009e-05, global = 4.4643027e-07, cumulative = 9.6697341e-05
ExecutionTime = 17.722445 s  ClockTime = 18 s

Time = 81s

smoothSolver:  Solving for Ux, Initial residual = 0.0011565223, Final residual = 4.050324e-05, No Iterations 3
smoothSolver:  Solving for Uy, Initial residual = 0.0087846753, Final residual = 0.00030639802, No Iterations 3
smoothSolver:  Solving for Uz, Initial residual = 0.0010281737, Final residual = 3.6575422e-05, No Iterations 3
GAMG:  Solving for p, Initial residual = 0.016242467, Final residual = 0.00010420466, No Iterations 4
time step continuity errors : sum local = 1.7671099e-05, global = 2.4839083e-07, cumulative = 9.6945732e-05
ExecutionTime = 17.935718 s  ClockTime = 19 s

Time = 82s

smoothSolver:  Solving for Ux, Initial residual = 0.0011503159, Final residual = 4.029033e-05, No Iterations 3
smoothSolver:  Solving for Uy, Initial residual = 0.0086703564, Final residual = 0.00030273024, No Iterations 3
smoothSolver:  Solving for Uz, Initial residual = 0.0010182284, Final residual = 3.6235504e-05, No Iterations 3
GAMG:  Solving for p, Initial residual = 0.016156453, Final residual = 0.00015380915, No Iterations 3
time step continuity errors : sum local = 2.6145137e-05, global = 4.0184942e-07, cumulative = 9.7347581e-05
ExecutionTime = 18.136418 s  ClockTime = 19 s

Time = 83s

smoothSolver:  Solving for Ux, Initial residual = 0.0011432309, Final residual = 4.0039999e-05, No Iterations 3
smoothSolver:  Solving for Uy, Initial residual = 0.0085507506, Final residual = 0.00029891982, No Iterations 3
smoothSolver:  Solving for Uz, Initial residual = 0.0010089232, Final residual = 3.5925161e-05, No Iterations 3
GAMG:  Solving for p, Initial residual = 0.016013337, Final residual = 0.00015747191, No Iterations 3
time step continuity errors : sum local = 2.6843273e-05, global = 4.090136e-07, cumulative = 9.7756595e-05
ExecutionTime = 18.338545 s  ClockTime = 19 s

Time = 84s

smoothSolver:  Solving for Ux, Initial residual = 0.0011365576, Final residual = 3.9807544e-05, No Iterations 3
smoothSolver:  Solving for Uy, Initial residual = 0.008434398, Final residual = 0.00029509422, No Iterations 3
smoothSolver:  Solving for Uz, Initial residual = 0.00099953654, Final residual = 3.5607983e-05, No Iterations 3
GAMG:  Solving for p, Initial residual = 0.015908008, Final residual = 9.9515122e-05, No Iterations 4
time step continuity errors : sum local = 1.7011293e-05, global = 2.5429015e-07, cumulative = 9.8010885e-05
ExecutionTime = 18.551829 s  ClockTime = 19 s

Time = 85s

smoothSolver:  Solving for Ux, Initial residual = 0.0011308189, Final residual = 3.9615998e-05, No Iterations 3
smoothSolver:  Solving for Uy, Initial residual = 0.0083269832, Final residual = 0.00029142181, No Iterations 3
smoothSolver:  Solving for Uz, Initial residual = 0.00098970814, Final residual = 3.5269851e-05, No Iterations 3
GAMG:  Solving for p, Initial residual = 0.015822015, Final residual = 0.00015302332, No Iterations 3
time step continuity errors : sum local = 2.6217727e-05, global = 4.0663124e-07, cumulative = 9.8417516e-05
ExecutionTime = 18.753387 s  ClockTime = 19 s

Time = 86s

smoothSolver:  Solving for Ux, Initial residual = 0.0011240447, Final residual = 3.9395391e-05, No Iterations 3
smoothSolver:  Solving for Uy, Initial residual = 0.0082099127, Final residual = 0.00028732166, No Iterations 3
smoothSolver:  Solving for Uz, Initial residual = 0.00098039008, Final residual = 3.4959209e-05, No Iterations 3
GAMG:  Solving for p, Initial residual = 0.015682647, Final residual = 0.00015505389, No Iterations 3
time step continuity errors : sum local = 2.6636592e-05, global = 4.1776757e-07, cumulative = 9.8835284e-05
ExecutionTime = 18.954313 s  ClockTime = 20 s

Time = 87s

smoothSolver:  Solving for Ux, Initial residual = 0.0011173729, Final residual = 3.9178768e-05, No Iterations 3
smoothSolver:  Solving for Uy, Initial residual = 0.0080915172, Final residual = 0.00028310118, No Iterations 3
smoothSolver:  Solving for Uz, Initial residual = 0.00097111887, Final residual = 3.4649315e-05, No Iterations 3
GAMG:  Solving for p, Initial residual = 0.015568589, Final residual = 9.8966232e-05, No Iterations 4
time step continuity errors : sum local = 1.7046085e-05, global = 2.1678028e-07, cumulative = 9.9052064e-05
ExecutionTime = 19.16689 s  ClockTime = 20 s

Time = 88s

smoothSolver:  Solving for Ux, Initial residual = 0.0011112625, Final residual = 3.8978476e-05, No Iterations 3
smoothSolver:  Solving for Uy, Initial residual = 0.0079840739, Final residual = 0.00027928288, No Iterations 3
smoothSolver:  Solving for Uz, Initial residual = 0.00096171266, Final residual = 3.4328589e-05, No Iterations 3
GAMG:  Solving for p, Initial residual = 0.015527506, Final residual = 0.00014338832, No Iterations 3
time step continuity errors : sum local = 2.4749223e-05, global = 3.6735776e-07, cumulative = 9.9419422e-05
ExecutionTime = 19.366982 s  ClockTime = 20 s

Time = 89s

smoothSolver:  Solving for Ux, Initial residual = 0.0011043613, Final residual = 3.8752949e-05, No Iterations 3
smoothSolver:  Solving for Uy, Initial residual = 0.0078830274, Final residual = 0.00027576596, No Iterations 3
smoothSolver:  Solving for Uz, Initial residual = 0.00095303733, Final residual = 3.4041909e-05, No Iterations 3
GAMG:  Solving for p, Initial residual = 0.015414192, Final residual = 0.0001450644, No Iterations 3
time step continuity errors : sum local = 2.5104118e-05, global = 3.486065e-07, cumulative = 9.9768028e-05
ExecutionTime = 19.567954 s  ClockTime = 20 s

Time = 90s

smoothSolver:  Solving for Ux, Initial residual = 0.0010978111, Final residual = 3.8542805e-05, No Iterations 3
smoothSolver:  Solving for Uy, Initial residual = 0.0078007464, Final residual = 0.00027277323, No Iterations 3
smoothSolver:  Solving for Uz, Initial residual = 0.00094458302, Final residual = 3.3760853e-05, No Iterations 3
GAMG:  Solving for p, Initial residual = 0.015246865, Final residual = 0.00015112879, No Iterations 3
time step continuity errors : sum local = 2.6220669e-05, global = 3.4652968e-07, cumulative = 0.00010011456
ExecutionTime = 19.77138 s  ClockTime = 20 s

Time = 91s

smoothSolver:  Solving for Ux, Initial residual = 0.0010915797, Final residual = 3.8347808e-05, No Iterations 3
smoothSolver:  Solving for Uy, Initial residual = 0.0077243188, Final residual = 0.00026999141, No Iterations 3
smoothSolver:  Solving for Uz, Initial residual = 0.00093607966, Final residual = 3.3476332e-05, No Iterations 3
GAMG:  Solving for p, Initial residual = 0.015108323, Final residual = 9.5060826e-05, No Iterations 4
time step continuity errors : sum local = 1.6534402e-05, global = 1.8379793e-07, cumulative = 0.00010029836
ExecutionTime = 19.984339 s  ClockTime = 21 s

Time = 92s

smoothSolver:  Solving for Ux, Initial residual = 0.0010857687, Final residual = 3.8160237e-05, No Iterations 3
smoothSolver:  Solving for Uy, Initial residual = 0.0076510535, Final residual = 0.00026714507, No Iterations 3
smoothSolver:  Solving for Uz, Initial residual = 0.00092712571, Final residual = 3.316818e-05, No Iterations 3
GAMG:  Solving for p, Initial residual = 0.01504559, Final residual = 0.00014167235, No Iterations 3
time step continuity errors : sum local = 2.4692361e-05, global = 3.0964202e-07, cumulative = 0.000100608
ExecutionTime = 20.187903 s  ClockTime = 21 s

Time = 93s

smoothSolver:  Solving for Ux, Initial residual = 0.0010790132, Final residual = 3.7929188e-05, No Iterations 3
smoothSolver:  Solving for Uy, Initial residual = 0.0075589087, Final residual = 0.00026364456, No Iterations 3
smoothSolver:  Solving for Uz, Initial residual = 0.00091846213, Final residual = 3.2878063e-05, No Iterations 3
GAMG:  Solving for p, Initial residual = 0.014925614, Final residual = 0.00014095963, No Iterations 3
time step continuity errors : sum local = 2.4629372e-05, global = 3.0640195e-07, cumulative = 0.0001009144
ExecutionTime = 20.393685 s  ClockTime = 21 s

Time = 94s

smoothSolver:  Solving for Ux, Initial residual = 0.0010722578, Final residual = 3.7694271e-05, No Iterations 3
smoothSolver:  Solving for Uy, Initial residual = 0.0074670845, Final residual = 0.00026007231, No Iterations 3
smoothSolver:  Solving for Uz, Initial residual = 0.00090984299, Final residual = 3.2591472e-05, No Iterations 3
GAMG:  Solving for p, Initial residual = 0.014820517, Final residual = 0.00014468681, No Iterations 3
time step continuity errors : sum local = 2.534223e-05, global = 3.2043292e-07, cumulative = 0.00010123483
ExecutionTime = 20.597695 s  ClockTime = 21 s

Time = 95s

smoothSolver:  Solving for Ux, Initial residual = 0.001065604, Final residual = 3.7466171e-05, No Iterations 3
smoothSolver:  Solving for Uy, Initial residual = 0.007384336, Final residual = 0.00025682836, No Iterations 3
smoothSolver:  Solving for Uz, Initial residual = 0.00090135291, Final residual = 3.2308627e-05, No Iterations 3
GAMG:  Solving for p, Initial residual = 0.014759735, Final residual = 9.0133493e-05, No Iterations 4
time step continuity errors : sum local = 1.582494e-05, global = 1.8426423e-07, cumulative = 0.0001014191
ExecutionTime = 20.812411 s  ClockTime = 22 s

Time = 96s

smoothSolver:  Solving for Ux, Initial residual = 0.0010595311, Final residual = 3.7256276e-05, No Iterations 3
smoothSolver:  Solving for Uy, Initial residual = 0.0073198661, Final residual = 0.00025421668, No Iterations 3
smoothSolver:  Solving for Uz, Initial residual = 0.00089291896, Final residual = 3.2021819e-05, No Iterations 3
GAMG:  Solving for p, Initial residual = 0.014742444, Final residual = 0.00013833089, No Iterations 3
time step continuity errors : sum local = 2.4335084e-05, global = 3.1748195e-07, cumulative = 0.00010173658
ExecutionTime = 21.012372 s  ClockTime = 22 s

Time = 97s

smoothSolver:  Solving for Ux, Initial residual = 0.0010530854, Final residual = 3.7033081e-05, No Iterations 3
smoothSolver:  Solving for Uy, Initial residual = 0.0072512756, Final residual = 0.00025163283, No Iterations 3
smoothSolver:  Solving for Uz, Initial residual = 0.00088504984, Final residual = 3.1761342e-05, No Iterations 3
GAMG:  Solving for p, Initial residual = 0.014626911, Final residual = 0.00014042255, No Iterations 3
time step continuity errors : sum local = 2.4762319e-05, global = 3.2371465e-07, cumulative = 0.00010206029
ExecutionTime = 21.214352 s  ClockTime = 22 s

Time = 98s

smoothSolver:  Solving for Ux, Initial residual = 0.0010470236, Final residual = 3.6817246e-05, No Iterations 3
smoothSolver:  Solving for Uy, Initial residual = 0.0071889074, Final residual = 0.00024920265, No Iterations 3
smoothSolver:  Solving for Uz, Initial residual = 0.00087726551, Final residual = 3.1499067e-05, No Iterations 3
GAMG:  Solving for p, Initial residual = 0.014496746, Final residual = 8.345521e-05, No Iterations 4
time step continuity errors : sum local = 1.4751344e-05, global = 1.9251768e-07, cumulative = 0.00010225281
ExecutionTime = 21.429019 s  ClockTime = 22 s

Time = 99s

smoothSolver:  Solving for Ux, Initial residual = 0.001041824, Final residual = 3.6624851e-05, No Iterations 3
smoothSolver:  Solving for Uy, Initial residual = 0.0071324168, Final residual = 0.00024696316, No Iterations 3
smoothSolver:  Solving for Uz, Initial residual = 0.00086924496, Final residual = 3.1219599e-05, No Iterations 3
GAMG:  Solving for p, Initial residual = 0.014431805, Final residual = 0.0001358504, No Iterations 3
time step continuity errors : sum local = 2.406224e-05, global = 3.0075066e-07, cumulative = 0.00010255356
ExecutionTime = 21.638336 s  ClockTime = 22 s

Time = 100s

smoothSolver:  Solving for Ux, Initial residual = 0.0010357155, Final residual = 3.6396891e-05, No Iterations 3
smoothSolver:  Solving for Uy, Initial residual = 0.0070625329, Final residual = 0.0002442492, No Iterations 3
smoothSolver:  Solving for Uz, Initial residual = 0.00086141501, Final residual = 3.0949107e-05, No Iterations 3
GAMG:  Solving for p, Initial residual = 0.01433338, Final residual = 0.0001390196, No Iterations 3
time step continuity errors : sum local = 2.4683141e-05, global = 2.9851844e-07, cumulative = 0.00010285208
ExecutionTime = 21.84227 s  ClockTime = 23 s

Time = 101s

smoothSolver:  Solving for Ux, Initial residual = 0.0010297923, Final residual = 3.6180091e-05, No Iterations 3
smoothSolver:  Solving for Uy, Initial residual = 0.0069977461, Final residual = 0.00024164284, No Iterations 3
smoothSolver:  Solving for Uz, Initial residual = 0.00085361441, Final residual = 3.0676284e-05, No Iterations 3
GAMG:  Solving for p, Initial residual = 0.014244834, Final residual = 8.2096278e-05, No Iterations 4
time step continuity errors : sum local = 1.4611312e-05, global = 1.7351738e-07, cumulative = 0.0001030256
ExecutionTime = 22.055922 s  ClockTime = 23 s

Time = 102s

smoothSolver:  Solving for Ux, Initial residual = 0.0010245871, Final residual = 3.5985881e-05, No Iterations 3
smoothSolver:  Solving for Uy, Initial residual = 0.0069517994, Final residual = 0.00023968958, No Iterations 3
smoothSolver:  Solving for Uz, Initial residual = 0.00084585177, Final residual = 3.0400375e-05, No Iterations 3
GAMG:  Solving for p, Initial residual = 0.014184361, Final residual = 0.00013758972, No Iterations 3
time step continuity errors : sum local = 2.453782e-05, global = 2.771965e-07, cumulative = 0.00010330279
ExecutionTime = 22.259911 s  ClockTime = 23 s

Time = 103s

smoothSolver:  Solving for Ux, Initial residual = 0.0010184959, Final residual = 3.5771635e-05, No Iterations 3
smoothSolver:  Solving for Uy, Initial residual = 0.0069006109, Final residual = 0.00023766324, No Iterations 3
smoothSolver:  Solving for Uz, Initial residual = 0.00083845521, Final residual = 3.0142506e-05, No Iterations 3
GAMG:  Solving for p, Initial residual = 0.014073473, Final residual = 0.00014013121, No Iterations 3
time step continuity errors : sum local = 2.5047633e-05, global = 2.8539178e-07, cumulative = 0.00010358819
ExecutionTime = 22.462059 s  ClockTime = 23 s

Time = 104s

smoothSolver:  Solving for Ux, Initial residual = 0.0010125759, Final residual = 3.5558637e-05, No Iterations 3
smoothSolver:  Solving for Uy, Initial residual = 0.0068496382, Final residual = 0.00023571501, No Iterations 3
smoothSolver:  Solving for Uz, Initial residual = 0.00083111377, Final residual = 2.9881816e-05, No Iterations 3
GAMG:  Solving for p, Initial residual = 0.013978231, Final residual = 8.2095199e-05, No Iterations 4
time step continuity errors : sum local = 1.4706351e-05, global = 1.6984004e-07, cumulative = 0.00010375803
ExecutionTime = 22.67504 s  ClockTime = 23 s

Time = 105s

smoothSolver:  Solving for Ux, Initial residual = 0.0010073747, Final residual = 3.5367273e-05, No Iterations 3
smoothSolver:  Solving for Uy, Initial residual = 0.0068041423, Final residual = 0.00023394584, No Iterations 3
smoothSolver:  Solving for Uz, Initial residual = 0.00082366261, Final residual = 2.9611711e-05, No Iterations 3
GAMG:  Solving for p, Initial residual = 0.013917606, Final residual = 0.00013423613, No Iterations 3
time step continuity errors : sum local = 2.4091636e-05, global = 2.6667116e-07, cumulative = 0.0001040247
ExecutionTime = 22.876724 s  ClockTime = 24 s

Time = 106s

smoothSolver:  Solving for Ux, Initial residual = 0.0010013847, Final residual = 3.5154344e-05, No Iterations 3
smoothSolver:  Solving for Uy, Initial residual = 0.0067422868, Final residual = 0.00023171124, No Iterations 3
smoothSolver:  Solving for Uz, Initial residual = 0.0008164085, Final residual = 2.9355057e-05, No Iterations 3
GAMG:  Solving for p, Initial residual = 0.01380638, Final residual = 0.00013646275, No Iterations 3
time step continuity errors : sum local = 2.4544109e-05, global = 2.7245636e-07, cumulative = 0.00010429715
ExecutionTime = 23.079109 s  ClockTime = 24 s

Time = 107s

smoothSolver:  Solving for Ux, Initial residual = 0.0009957464, Final residual = 3.495664e-05, No Iterations 3
smoothSolver:  Solving for Uy, Initial residual = 0.0066857512, Final residual = 0.00022959968, No Iterations 3
smoothSolver:  Solving for Uz, Initial residual = 0.00080922434, Final residual = 2.9100725e-05, No Iterations 3
GAMG:  Solving for p, Initial residual = 0.013710619, Final residual = 7.952297e-05, No Iterations 4
time step continuity errors : sum local = 1.4333133e-05, global = 1.6388558e-07, cumulative = 0.00010446104
ExecutionTime = 23.291371 s  ClockTime = 24 s

Time = 108s

smoothSolver:  Solving for Ux, Initial residual = 0.00099098568, Final residual = 3.4786339e-05, No Iterations 3
smoothSolver:  Solving for Uy, Initial residual = 0.0066411251, Final residual = 0.00022787904, No Iterations 3
smoothSolver:  Solving for Uz, Initial residual = 0.00080209793, Final residual = 2.8842407e-05, No Iterations 3
GAMG:  Solving for p, Initial residual = 0.013657539, Final residual = 0.00013212648, No Iterations 3
time step continuity errors : sum local = 2.3857636e-05, global = 2.5874479e-07, cumulative = 0.00010471978
ExecutionTime = 23.495935 s  ClockTime = 24 s

Time = 109s

smoothSolver:  Solving for Ux, Initial residual = 0.00098534708, Final residual = 3.4584406e-05, No Iterations 3
smoothSolver:  Solving for Uy, Initial residual = 0.0065903271, Final residual = 0.00022588316, No Iterations 3
smoothSolver:  Solving for Uz, Initial residual = 0.0007951344, Final residual = 2.859635e-05, No Iterations 3
GAMG:  Solving for p, Initial residual = 0.013570842, Final residual = 0.00013468816, No Iterations 3
time step continuity errors : sum local = 2.4371397e-05, global = 2.6064358e-07, cumulative = 0.00010498043
ExecutionTime = 23.696761 s  ClockTime = 24 s

Time = 110s

smoothSolver:  Solving for Ux, Initial residual = 0.0009798598, Final residual = 3.4393141e-05, No Iterations 3
smoothSolver:  Solving for Uy, Initial residual = 0.0065454894, Final residual = 0.00022411968, No Iterations 3
smoothSolver:  Solving for Uz, Initial residual = 0.00078826665, Final residual = 2.8351839e-05, No Iterations 3
GAMG:  Solving for p, Initial residual = 0.013501626, Final residual = 7.5863481e-05, No Iterations 4
time step continuity errors : sum local = 1.3755584e-05, global = 1.5739442e-07, cumulative = 0.00010513782
ExecutionTime = 23.911338 s  ClockTime = 25 s

Time = 111s

smoothSolver:  Solving for Ux, Initial residual = 0.00097513427, Final residual = 3.4233332e-05, No Iterations 3
smoothSolver:  Solving for Uy, Initial residual = 0.006510229, Final residual = 0.0002227461, No Iterations 3
smoothSolver:  Solving for Uz, Initial residual = 0.00078146576, Final residual = 2.8103967e-05, No Iterations 3
GAMG:  Solving for p, Initial residual = 0.013461176, Final residual = 0.00012980201, No Iterations 3
time step continuity errors : sum local = 2.3578545e-05, global = 2.4258315e-07, cumulative = 0.0001053804
ExecutionTime = 24.112395 s  ClockTime = 25 s

Time = 112s

smoothSolver:  Solving for Ux, Initial residual = 0.00096961681, Final residual = 3.4051564e-05, No Iterations 3
smoothSolver:  Solving for Uy, Initial residual = 0.0064649457, Final residual = 0.00022112987, No Iterations 3
smoothSolver:  Solving for Uz, Initial residual = 0.00077481476, Final residual = 2.7866423e-05, No Iterations 3
GAMG:  Solving for p, Initial residual = 0.013361236, Final residual = 0.00013175049, No Iterations 3
time step continuity errors : sum local = 2.3980478e-05, global = 2.4532345e-07, cumulative = 0.00010562573
ExecutionTime = 24.316713 s  ClockTime = 25 s

Time = 113s

smoothSolver:  Solving for Ux, Initial residual = 0.00096435578, Final residual = 3.3876695e-05, No Iterations 3
smoothSolver:  Solving for Uy, Initial residual = 0.0064267501, Final residual = 0.00021976201, No Iterations 3
smoothSolver:  Solving for Uz, Initial residual = 0.00076832948, Final residual = 2.7632291e-05, No Iterations 3
GAMG:  Solving for p, Initial residual = 0.013316006, Final residual = 7.3671049e-05, No Iterations 4
time step continuity errors : sum local = 1.3436088e-05, global = 1.4721915e-07, cumulative = 0.00010577295
ExecutionTime = 24.526792 s  ClockTime = 25 s

Time = 114s

smoothSolver:  Solving for Ux, Initial residual = 0.0009599424, Final residual = 3.3730911e-05, No Iterations 3
smoothSolver:  Solving for Uy, Initial residual = 0.0064055517, Final residual = 0.00021890931, No Iterations 3
smoothSolver:  Solving for Uz, Initial residual = 0.00076208166, Final residual = 2.7400607e-05, No Iterations 3
GAMG:  Solving for p, Initial residual = 0.013296347, Final residual = 0.0001295267, No Iterations 3
time step continuity errors : sum local = 2.3664626e-05, global = 2.3185099e-07, cumulative = 0.0001060048
ExecutionTime = 24.732111 s  ClockTime = 25 s

Time = 115s

smoothSolver:  Solving for Ux, Initial residual = 0.00095460404, Final residual = 3.355345e-05, No Iterations 3
smoothSolver:  Solving for Uy, Initial residual = 0.0063741337, Final residual = 0.00021774399, No Iterations 3
smoothSolver:  Solving for Uz, Initial residual = 0.00075594154, Final residual = 2.7178201e-05, No Iterations 3
GAMG:  Solving for p, Initial residual = 0.013210423, Final residual = 7.0684212e-05, No Iterations 4
time step continuity errors : sum local = 1.2938982e-05, global = 1.3799135e-07, cumulative = 0.00010614279
ExecutionTime = 24.946791 s  ClockTime = 26 s

Time = 116s

smoothSolver:  Solving for Ux, Initial residual = 0.00095001049, Final residual = 3.339769e-05, No Iterations 3
smoothSolver:  Solving for Uy, Initial residual = 0.0063487776, Final residual = 0.00021691885, No Iterations 3
smoothSolver:  Solving for Uz, Initial residual = 0.00074983996, Final residual = 2.6953219e-05, No Iterations 3
GAMG:  Solving for p, Initial residual = 0.013117305, Final residual = 0.00012519157, No Iterations 3
time step continuity errors : sum local = 2.2955981e-05, global = 2.0575566e-07, cumulative = 0.00010634855
ExecutionTime = 25.150312 s  ClockTime = 26 s

Time = 117s

smoothSolver:  Solving for Ux, Initial residual = 0.00094457764, Final residual = 3.3210495e-05, No Iterations 3
smoothSolver:  Solving for Uy, Initial residual = 0.0063071266, Final residual = 0.00021555133, No Iterations 3
smoothSolver:  Solving for Uz, Initial residual = 0.00074354096, Final residual = 2.6728846e-05, No Iterations 3
GAMG:  Solving for p, Initial residual = 0.013010082, Final residual = 6.947895e-05, No Iterations 4
time step continuity errors : sum local = 1.2764592e-05, global = 1.1917051e-07, cumulative = 0.00010646772
ExecutionTime = 25.364721 s  ClockTime = 26 s

Time = 118s

smoothSolver:  Solving for Ux, Initial residual = 0.00093994101, Final residual = 3.3042795e-05, No Iterations 3
smoothSolver:  Solving for Uy, Initial residual = 0.0062733592, Final residual = 0.0002144116, No Iterations 3
smoothSolver:  Solving for Uz, Initial residual = 0.00073718415, Final residual = 2.6496555e-05, No Iterations 3
GAMG:  Solving for p, Initial residual = 0.012939319, Final residual = 0.00012603406, No Iterations 3
time step continuity errors : sum local = 2.3194967e-05, global = 1.8540456e-07, cumulative = 0.00010665312
ExecutionTime = 25.567624 s  ClockTime = 26 s

Time = 119s

smoothSolver:  Solving for Ux, Initial residual = 0.00093465894, Final residual = 3.2853893e-05, No Iterations 3
smoothSolver:  Solving for Uy, Initial residual = 0.0062305292, Final residual = 0.00021301138, No Iterations 3
smoothSolver:  Solving for Uz, Initial residual = 0.00073088923, Final residual = 2.6269875e-05, No Iterations 3
GAMG:  Solving for p, Initial residual = 0.012827652, Final residual = 6.9451654e-05, No Iterations 4
time step continuity errors : sum local = 1.2805526e-05, global = 1.0920061e-07, cumulative = 0.00010676232
ExecutionTime = 25.781103 s  ClockTime = 27 s

Time = 120s

smoothSolver:  Solving for Ux, Initial residual = 0.00093034784, Final residual = 3.2697466e-05, No Iterations 3
smoothSolver:  Solving for Uy, Initial residual = 0.0062031489, Final residual = 0.00021209232, No Iterations 3
smoothSolver:  Solving for Uz, Initial residual = 0.00072495046, Final residual = 2.6047794e-05, No Iterations 3
GAMG:  Solving for p, Initial residual = 0.01272845, Final residual = 0.00012561948, No Iterations 3
time step continuity errors : sum local = 2.3198935e-05, global = 1.7207434e-07, cumulative = 0.0001069344
ExecutionTime = 25.982774 s  ClockTime = 27 s

Time = 121s

smoothSolver:  Solving for Ux, Initial residual = 0.00092533623, Final residual = 3.2521547e-05, No Iterations 3
smoothSolver:  Solving for Uy, Initial residual = 0.0061663039, Final residual = 0.00021084916, No Iterations 3
smoothSolver:  Solving for Uz, Initial residual = 0.00071907775, Final residual = 2.5835742e-05, No Iterations 3
GAMG:  Solving for p, Initial residual = 0.012618531, Final residual = 6.7370427e-05, No Iterations 4
time step continuity errors : sum local = 1.2463779e-05, global = 1.1696999e-07, cumulative = 0.00010705137
ExecutionTime = 26.196304 s  ClockTime = 27 s

Time = 122s

smoothSolver:  Solving for Ux, Initial residual = 0.00092116025, Final residual = 3.2370822e-05, No Iterations 3
smoothSolver:  Solving for Uy, Initial residual = 0.0061359418, Final residual = 0.0002098123, No Iterations 3
smoothSolver:  Solving for Uz, Initial residual = 0.00071340394, Final residual = 2.5625839e-05, No Iterations 3
GAMG:  Solving for p, Initial residual = 0.012548097, Final residual = 0.000122616, No Iterations 3
time step continuity errors : sum local = 2.2720004e-05, global = 1.8371259e-07, cumulative = 0.00010723508
ExecutionTime = 26.399744 s  ClockTime = 27 s

Time = 123s

smoothSolver:  Solving for Ux, Initial residual = 0.0009162239, Final residual = 3.2189209e-05, No Iterations 3
smoothSolver:  Solving for Uy, Initial residual = 0.0060987167, Final residual = 0.00020850645, No Iterations 3
smoothSolver:  Solving for Uz, Initial residual = 0.00070769381, Final residual = 2.5420272e-05, No Iterations 3
GAMG:  Solving for p, Initial residual = 0.012472154, Final residual = 6.6082463e-05, No Iterations 4
time step continuity errors : sum local = 1.2266034e-05, global = 1.2308493e-07, cumulative = 0.00010735816
ExecutionTime = 26.613564 s  ClockTime = 27 s

Time = 124s

smoothSolver:  Solving for Ux, Initial residual = 0.00091211859, Final residual = 3.2025858e-05, No Iterations 3
smoothSolver:  Solving for Uy, Initial residual = 0.0060744511, Final residual = 0.00020766518, No Iterations 3
smoothSolver:  Solving for Uz, Initial residual = 0.00070228876, Final residual = 2.5219299e-05, No Iterations 3
GAMG:  Solving for p, Initial residual = 0.012429118, Final residual = 0.00012049345, No Iterations 3
time step continuity errors : sum local = 2.2402039e-05, global = 1.9489702e-07, cumulative = 0.00010755306
ExecutionTime = 26.819435 s  ClockTime = 28 s

Time = 125s

smoothSolver:  Solving for Ux, Initial residual = 0.00090728795, Final residual = 3.183935e-05, No Iterations 3
smoothSolver:  Solving for Uy, Initial residual = 0.0060451817, Final residual = 0.0002067013, No Iterations 3
smoothSolver:  Solving for Uz, Initial residual = 0.00069684594, Final residual = 2.5019969e-05, No Iterations 3
GAMG:  Solving for p, Initial residual = 0.012342289, Final residual = 6.4979234e-05, No Iterations 4
time step continuity errors : sum local = 1.2102868e-05, global = 1.2276076e-07, cumulative = 0.00010767582
ExecutionTime = 27.033416 s  ClockTime = 28 s

Time = 126s

smoothSolver:  Solving for Ux, Initial residual = 0.00090337269, Final residual = 3.1683029e-05, No Iterations 3
smoothSolver:  Solving for Uy, Initial residual = 0.0060271107, Final residual = 0.00020616552, No Iterations 3
smoothSolver:  Solving for Uz, Initial residual = 0.00069163924, Final residual = 2.4821724e-05, No Iterations 3
GAMG:  Solving for p, Initial residual = 0.012279097, Final residual = 0.00012108567, No Iterations 3
time step continuity errors : sum local = 2.2590732e-05, global = 1.8364881e-07, cumulative = 0.00010785947
ExecutionTime = 27.235303 s  ClockTime = 28 s

Time = 127s

smoothSolver:  Solving for Ux, Initial residual = 0.00089872034, Final residual = 3.1515257e-05, No Iterations 3
smoothSolver:  Solving for Uy, Initial residual = 0.005998878, Final residual = 0.00020528483, No Iterations 3
smoothSolver:  Solving for Uz, Initial residual = 0.00068634092, Final residual = 2.4626455e-05, No Iterations 3
GAMG:  Solving for p, Initial residual = 0.012198746, Final residual = 6.4793469e-05, No Iterations 4
time step continuity errors : sum local = 1.2110155e-05, global = 1.0128403e-07, cumulative = 0.00010796075
ExecutionTime = 27.447577 s  ClockTime = 28 s

Time = 128s

smoothSolver:  Solving for Ux, Initial residual = 0.00089493804, Final residual = 3.137628e-05, No Iterations 3
smoothSolver:  Solving for Uy, Initial residual = 0.0059794268, Final residual = 0.00020467875, No Iterations 3
smoothSolver:  Solving for Uz, Initial residual = 0.00068130444, Final residual = 2.4436543e-05, No Iterations 3
GAMG:  Solving for p, Initial residual = 0.012159405, Final residual = 0.00011932511, No Iterations 3
time step continuity errors : sum local = 2.233861e-05, global = 1.4959157e-07, cumulative = 0.00010811035
ExecutionTime = 27.649639 s  ClockTime = 28 s

Time = 129s

smoothSolver:  Solving for Ux, Initial residual = 0.00089037944, Final residual = 3.1214169e-05, No Iterations 3
smoothSolver:  Solving for Uy, Initial residual = 0.0059487094, Final residual = 0.00020372328, No Iterations 3
smoothSolver:  Solving for Uz, Initial residual = 0.00067609739, Final residual = 2.4246906e-05, No Iterations 3
GAMG:  Solving for p, Initial residual = 0.012103326, Final residual = 6.3776225e-05, No Iterations 4
time step continuity errors : sum local = 1.1960188e-05, global = 7.9807517e-08, cumulative = 0.00010819015
ExecutionTime = 27.863711 s  ClockTime = 29 s

Time = 130s

smoothSolver:  Solving for Ux, Initial residual = 0.00088675515, Final residual = 3.1081749e-05, No Iterations 3
smoothSolver:  Solving for Uy, Initial residual = 0.0059308815, Final residual = 0.00020323238, No Iterations 3
smoothSolver:  Solving for Uz, Initial residual = 0.00067124785, Final residual = 2.4065549e-05, No Iterations 3
[...]
GAMG:  Solving for p, Initial residual = 1.4446467e-05, Final residual = 5.8749194e-08, No Iterations 3
time step continuity errors : sum local = 1.3469592e-08, global = -2.5635383e-10, cumulative = 0.00011283689
ExecutionTime = 224.89744 s  ClockTime = 228 s

Time = 1098s

smoothSolver:  Solving for Ux, Initial residual = 1.4588014e-06, Final residual = 5.3682454e-08, No Iterations 3
smoothSolver:  Solving for Uy, Initial residual = 1.2133608e-05, Final residual = 4.7186594e-07, No Iterations 3
smoothSolver:  Solving for Uz, Initial residual = 5.2108364e-07, Final residual = 1.9429712e-08, No Iterations 3
GAMG:  Solving for p, Initial residual = 1.4285095e-05, Final residual = 5.8112861e-08, No Iterations 3
time step continuity errors : sum local = 1.3323692e-08, global = -2.4985647e-10, cumulative = 0.00011283664
ExecutionTime = 225.0983 s  ClockTime = 228 s

Time = 1099s

smoothSolver:  Solving for Ux, Initial residual = 1.4405467e-06, Final residual = 5.29999e-08, No Iterations 3
smoothSolver:  Solving for Uy, Initial residual = 1.2000135e-05, Final residual = 4.6695641e-07, No Iterations 3
smoothSolver:  Solving for Uz, Initial residual = 5.1545871e-07, Final residual = 1.9227282e-08, No Iterations 3
GAMG:  Solving for p, Initial residual = 1.4125757e-05, Final residual = 5.7485946e-08, No Iterations 3
time step continuity errors : sum local = 1.3179951e-08, global = -2.4294659e-10, cumulative = 0.00011283639
ExecutionTime = 225.29936 s  ClockTime = 228 s

Time = 1100s

smoothSolver:  Solving for Ux, Initial residual = 1.4227472e-06, Final residual = 5.2341945e-08, No Iterations 3
smoothSolver:  Solving for Uy, Initial residual = 1.1866672e-05, Final residual = 4.6195141e-07, No Iterations 3
smoothSolver:  Solving for Uz, Initial residual = 5.0987952e-07, Final residual = 1.9026721e-08, No Iterations 3
GAMG:  Solving for p, Initial residual = 1.3967467e-05, Final residual = 5.6860091e-08, No Iterations 3
time step continuity errors : sum local = 1.3036453e-08, global = -2.357692e-10, cumulative = 0.00011283616
ExecutionTime = 225.49984 s  ClockTime = 229 s

Time = 1101s

smoothSolver:  Solving for Ux, Initial residual = 1.405281e-06, Final residual = 5.1713595e-08, No Iterations 3
smoothSolver:  Solving for Uy, Initial residual = 1.1733108e-05, Final residual = 4.5688941e-07, No Iterations 3
smoothSolver:  Solving for Uz, Initial residual = 5.0433234e-07, Final residual = 1.8828144e-08, No Iterations 3
GAMG:  Solving for p, Initial residual = 1.3810698e-05, Final residual = 5.6229395e-08, No Iterations 3
time step continuity errors : sum local = 1.2891845e-08, global = -2.2845917e-10, cumulative = 0.00011283593
ExecutionTime = 225.70048 s  ClockTime = 229 s

Time = 1102s

smoothSolver:  Solving for Ux, Initial residual = 1.3882217e-06, Final residual = 5.1111322e-08, No Iterations 3
smoothSolver:  Solving for Uy, Initial residual = 1.1599301e-05, Final residual = 4.5174005e-07, No Iterations 3
smoothSolver:  Solving for Uz, Initial residual = 4.9881578e-07, Final residual = 1.8629715e-08, No Iterations 3
GAMG:  Solving for p, Initial residual = 1.3656245e-05, Final residual = 5.5599986e-08, No Iterations 3
time step continuity errors : sum local = 1.2747534e-08, global = -2.2112614e-10, cumulative = 0.00011283571
ExecutionTime = 225.90268 s  ClockTime = 229 s

Time = 1103s

smoothSolver:  Solving for Ux, Initial residual = 1.3715957e-06, Final residual = 5.0529799e-08, No Iterations 3
smoothSolver:  Solving for Uy, Initial residual = 1.1465172e-05, Final residual = 4.4650559e-07, No Iterations 3
smoothSolver:  Solving for Uz, Initial residual = 4.9335514e-07, Final residual = 1.8431175e-08, No Iterations 3
GAMG:  Solving for p, Initial residual = 1.3502674e-05, Final residual = 5.4975067e-08, No Iterations 3
time step continuity errors : sum local = 1.2604251e-08, global = -2.1381493e-10, cumulative = 0.0001128355
ExecutionTime = 226.10423 s  ClockTime = 229 s

Time = 1104s

smoothSolver:  Solving for Ux, Initial residual = 1.3554295e-06, Final residual = 4.9970692e-08, No Iterations 3
smoothSolver:  Solving for Uy, Initial residual = 1.1330764e-05, Final residual = 4.4122327e-07, No Iterations 3
smoothSolver:  Solving for Uz, Initial residual = 4.879368e-07, Final residual = 1.8232523e-08, No Iterations 3
GAMG:  Solving for p, Initial residual = 1.3350587e-05, Final residual = 5.4350233e-08, No Iterations 3
time step continuity errors : sum local = 1.2460988e-08, global = -2.2080862e-10, cumulative = 0.00011283527
ExecutionTime = 226.30748 s  ClockTime = 229 s

Time = 1105s

smoothSolver:  Solving for Ux, Initial residual = 1.339708e-06, Final residual = 4.9430344e-08, No Iterations 3
smoothSolver:  Solving for Uy, Initial residual = 1.119604e-05, Final residual = 4.3587693e-07, No Iterations 3
smoothSolver:  Solving for Uz, Initial residual = 4.825744e-07, Final residual = 1.8034789e-08, No Iterations 3
GAMG:  Solving for p, Initial residual = 1.3199668e-05, Final residual = 5.3728113e-08, No Iterations 3
time step continuity errors : sum local = 1.2318348e-08, global = -2.0431132e-10, cumulative = 0.00011283507
ExecutionTime = 226.50782 s  ClockTime = 230 s

Time = 1106s

smoothSolver:  Solving for Ux, Initial residual = 1.3244392e-06, Final residual = 4.8910842e-08, No Iterations 3
smoothSolver:  Solving for Uy, Initial residual = 1.1061345e-05, Final residual = 4.3045129e-07, No Iterations 3
smoothSolver:  Solving for Uz, Initial residual = 4.7724127e-07, Final residual = 1.7837093e-08, No Iterations 3
GAMG:  Solving for p, Initial residual = 1.3049635e-05, Final residual = 5.3120917e-08, No Iterations 3
time step continuity errors : sum local = 1.2179129e-08, global = -1.9849641e-10, cumulative = 0.00011283487
ExecutionTime = 226.70846 s  ClockTime = 230 s

Time = 1107s

smoothSolver:  Solving for Ux, Initial residual = 1.3096183e-06, Final residual = 4.8413583e-08, No Iterations 3
smoothSolver:  Solving for Uy, Initial residual = 1.0926359e-05, Final residual = 4.2492686e-07, No Iterations 3
smoothSolver:  Solving for Uz, Initial residual = 4.7193633e-07, Final residual = 1.7640503e-08, No Iterations 3
GAMG:  Solving for p, Initial residual = 1.2901266e-05, Final residual = 5.2526056e-08, No Iterations 3
time step continuity errors : sum local = 1.2042739e-08, global = -1.9106843e-10, cumulative = 0.00011283468
ExecutionTime = 226.91098 s  ClockTime = 230 s

Time = 1108s

smoothSolver:  Solving for Ux, Initial residual = 1.2951347e-06, Final residual = 4.793223e-08, No Iterations 3
smoothSolver:  Solving for Uy, Initial residual = 1.0790841e-05, Final residual = 4.1937439e-07, No Iterations 3
smoothSolver:  Solving for Uz, Initial residual = 4.6667385e-07, Final residual = 1.7444814e-08, No Iterations 3
GAMG:  Solving for p, Initial residual = 1.2755019e-05, Final residual = 5.1915225e-08, No Iterations 3
time step continuity errors : sum local = 1.1902688e-08, global = -1.9586706e-10, cumulative = 0.00011283449
ExecutionTime = 227.11125 s  ClockTime = 230 s

Time = 1109s

smoothSolver:  Solving for Ux, Initial residual = 1.2810173e-06, Final residual = 4.7468013e-08, No Iterations 3
smoothSolver:  Solving for Uy, Initial residual = 1.0654607e-05, Final residual = 4.1376736e-07, No Iterations 3
smoothSolver:  Solving for Uz, Initial residual = 4.6143859e-07, Final residual = 1.7249454e-08, No Iterations 3
GAMG:  Solving for p, Initial residual = 1.2610621e-05, Final residual = 5.1313121e-08, No Iterations 3
time step continuity errors : sum local = 1.1764637e-08, global = -1.9136053e-10, cumulative = 0.00011283429
ExecutionTime = 227.31205 s  ClockTime = 230 s

Time = 1110s

smoothSolver:  Solving for Ux, Initial residual = 1.2672492e-06, Final residual = 4.7021646e-08, No Iterations 3
smoothSolver:  Solving for Uy, Initial residual = 1.0517961e-05, Final residual = 4.0806733e-07, No Iterations 3
smoothSolver:  Solving for Uz, Initial residual = 4.56252e-07, Final residual = 1.705468e-08, No Iterations 3
GAMG:  Solving for p, Initial residual = 1.2467655e-05, Final residual = 5.0770915e-08, No Iterations 3
time step continuity errors : sum local = 1.164032e-08, global = -1.7421743e-10, cumulative = 0.00011283412
ExecutionTime = 227.51292 s  ClockTime = 231 s

Time = 1111s

smoothSolver:  Solving for Ux, Initial residual = 1.2538534e-06, Final residual = 4.6593439e-08, No Iterations 3
smoothSolver:  Solving for Uy, Initial residual = 1.0380996e-05, Final residual = 4.0226017e-07, No Iterations 3
smoothSolver:  Solving for Uz, Initial residual = 4.511181e-07, Final residual = 1.6860453e-08, No Iterations 3
GAMG:  Solving for p, Initial residual = 1.232521e-05, Final residual = 5.0195377e-08, No Iterations 3
time step continuity errors : sum local = 1.150836e-08, global = -1.6942182e-10, cumulative = 0.00011283395
ExecutionTime = 227.71763 s  ClockTime = 231 s

Time = 1112s

smoothSolver:  Solving for Ux, Initial residual = 1.2407471e-06, Final residual = 4.6178107e-08, No Iterations 3
smoothSolver:  Solving for Uy, Initial residual = 1.0244048e-05, Final residual = 3.9639118e-07, No Iterations 3
smoothSolver:  Solving for Uz, Initial residual = 4.4605007e-07, Final residual = 1.6667182e-08, No Iterations 3
GAMG:  Solving for p, Initial residual = 1.2184485e-05, Final residual = 4.962468e-08, No Iterations 3
time step continuity errors : sum local = 1.1377511e-08, global = -1.6147747e-10, cumulative = 0.00011283379
ExecutionTime = 227.91738 s  ClockTime = 231 s

Time = 1113s

smoothSolver:  Solving for Ux, Initial residual = 1.2279724e-06, Final residual = 4.5768944e-08, No Iterations 3
smoothSolver:  Solving for Uy, Initial residual = 1.0107142e-05, Final residual = 3.9048164e-07, No Iterations 3
smoothSolver:  Solving for Uz, Initial residual = 4.4103093e-07, Final residual = 1.6475037e-08, No Iterations 3
GAMG:  Solving for p, Initial residual = 1.2046215e-05, Final residual = 4.9019708e-08, No Iterations 3
time step continuity errors : sum local = 1.1238803e-08, global = -1.6604046e-10, cumulative = 0.00011283362
ExecutionTime = 228.11935 s  ClockTime = 231 s

Time = 1114s

smoothSolver:  Solving for Ux, Initial residual = 1.2154683e-06, Final residual = 4.5373725e-08, No Iterations 3
smoothSolver:  Solving for Uy, Initial residual = 9.9704281e-06, Final residual = 3.8453385e-07, No Iterations 3
smoothSolver:  Solving for Uz, Initial residual = 4.3606548e-07, Final residual = 1.6285095e-08, No Iterations 3
GAMG:  Solving for p, Initial residual = 1.1909364e-05, Final residual = 4.8495129e-08, No Iterations 3
time step continuity errors : sum local = 1.1118528e-08, global = -1.504459e-10, cumulative = 0.00011283347
ExecutionTime = 228.31899 s  ClockTime = 231 s

Time = 1115s

smoothSolver:  Solving for Ux, Initial residual = 1.2031999e-06, Final residual = 4.4984795e-08, No Iterations 3
smoothSolver:  Solving for Uy, Initial residual = 9.8335517e-06, Final residual = 3.7857241e-07, No Iterations 3
smoothSolver:  Solving for Uz, Initial residual = 4.3113949e-07, Final residual = 1.6097423e-08, No Iterations 3
GAMG:  Solving for p, Initial residual = 1.1773376e-05, Final residual = 4.7916101e-08, No Iterations 3
time step continuity errors : sum local = 1.0985769e-08, global = -1.5575475e-10, cumulative = 0.00011283332
ExecutionTime = 228.51816 s  ClockTime = 232 s

Time = 1116s

smoothSolver:  Solving for Ux, Initial residual = 1.1911564e-06, Final residual = 4.4604511e-08, No Iterations 3
smoothSolver:  Solving for Uy, Initial residual = 9.6969417e-06, Final residual = 3.7261339e-07, No Iterations 3
smoothSolver:  Solving for Uz, Initial residual = 4.2627836e-07, Final residual = 1.5912158e-08, No Iterations 3
GAMG:  Solving for p, Initial residual = 1.1638429e-05, Final residual = 4.7408332e-08, No Iterations 3
time step continuity errors : sum local = 1.0869347e-08, global = -1.4150826e-10, cumulative = 0.00011283318
ExecutionTime = 228.71973 s  ClockTime = 232 s

Time = 1117s

smoothSolver:  Solving for Ux, Initial residual = 1.1793201e-06, Final residual = 4.4231744e-08, No Iterations 3
smoothSolver:  Solving for Uy, Initial residual = 9.56133e-06, Final residual = 3.6665062e-07, No Iterations 3
smoothSolver:  Solving for Uz, Initial residual = 4.2149312e-07, Final residual = 1.5729043e-08, No Iterations 3
GAMG:  Solving for p, Initial residual = 1.1505001e-05, Final residual = 4.6844782e-08, No Iterations 3
time step continuity errors : sum local = 1.0740137e-08, global = -1.459607e-10, cumulative = 0.00011283303
ExecutionTime = 228.9204 s  ClockTime = 232 s

Time = 1118s

smoothSolver:  Solving for Ux, Initial residual = 1.1676725e-06, Final residual = 4.3862417e-08, No Iterations 3
smoothSolver:  Solving for Uy, Initial residual = 9.4265124e-06, Final residual = 3.6069117e-07, No Iterations 3
smoothSolver:  Solving for Uz, Initial residual = 4.1676522e-07, Final residual = 1.5548006e-08, No Iterations 3
GAMG:  Solving for p, Initial residual = 1.1372051e-05, Final residual = 4.631773e-08, No Iterations 3
time step continuity errors : sum local = 1.0619295e-08, global = -1.4194134e-10, cumulative = 0.00011283289
ExecutionTime = 229.12344 s  ClockTime = 232 s

Time = 1119s

smoothSolver:  Solving for Ux, Initial residual = 1.156181e-06, Final residual = 4.3497043e-08, No Iterations 3
smoothSolver:  Solving for Uy, Initial residual = 9.2927477e-06, Final residual = 3.547601e-07, No Iterations 3
smoothSolver:  Solving for Uz, Initial residual = 4.1210246e-07, Final residual = 1.5368884e-08, No Iterations 3
GAMG:  Solving for p, Initial residual = 1.1240393e-05, Final residual = 4.57948e-08, No Iterations 3
time step continuity errors : sum local = 1.0499398e-08, global = -1.3819054e-10, cumulative = 0.00011283275
ExecutionTime = 229.32613 s  ClockTime = 232 s

Time = 1120s

smoothSolver:  Solving for Ux, Initial residual = 1.1448249e-06, Final residual = 4.3132365e-08, No Iterations 3
smoothSolver:  Solving for Uy, Initial residual = 9.159898e-06, Final residual = 3.4885226e-07, No Iterations 3
smoothSolver:  Solving for Uz, Initial residual = 4.0751031e-07, Final residual = 1.5192012e-08, No Iterations 3
GAMG:  Solving for p, Initial residual = 1.1110178e-05, Final residual = 4.5275431e-08, No Iterations 3
time step continuity errors : sum local = 1.0380318e-08, global = -1.2934126e-10, cumulative = 0.00011283262
ExecutionTime = 229.52639 s  ClockTime = 233 s

Time = 1121s

smoothSolver:  Solving for Ux, Initial residual = 1.1335967e-06, Final residual = 4.2769074e-08, No Iterations 3
smoothSolver:  Solving for Uy, Initial residual = 9.0283528e-06, Final residual = 3.4299854e-07, No Iterations 3
smoothSolver:  Solving for Uz, Initial residual = 4.0298618e-07, Final residual = 1.5017019e-08, No Iterations 3
GAMG:  Solving for p, Initial residual = 1.0980791e-05, Final residual = 4.4779371e-08, No Iterations 3
time step continuity errors : sum local = 1.0266582e-08, global = -1.2309398e-10, cumulative = 0.0001128325
ExecutionTime = 229.72821 s  ClockTime = 233 s

Time = 1122s

smoothSolver:  Solving for Ux, Initial residual = 1.1224404e-06, Final residual = 4.2403348e-08, No Iterations 3
smoothSolver:  Solving for Uy, Initial residual = 8.8981792e-06, Final residual = 3.3719669e-07, No Iterations 3
smoothSolver:  Solving for Uz, Initial residual = 3.9852247e-07, Final residual = 1.4844963e-08, No Iterations 3
GAMG:  Solving for p, Initial residual = 1.0852201e-05, Final residual = 4.4283062e-08, No Iterations 3
time step continuity errors : sum local = 1.0152789e-08, global = -1.1553622e-10, cumulative = 0.00011283238
ExecutionTime = 229.92929 s  ClockTime = 233 s

Time = 1123s

smoothSolver:  Solving for Ux, Initial residual = 1.1113643e-06, Final residual = 4.2035465e-08, No Iterations 3
smoothSolver:  Solving for Uy, Initial residual = 8.7692062e-06, Final residual = 3.3147822e-07, No Iterations 3
smoothSolver:  Solving for Uz, Initial residual = 3.941206e-07, Final residual = 1.4675446e-08, No Iterations 3
GAMG:  Solving for p, Initial residual = 1.0724839e-05, Final residual = 4.3793572e-08, No Iterations 3
time step continuity errors : sum local = 1.0040559e-08, global = -1.0702903e-10, cumulative = 0.00011283227
ExecutionTime = 230.13025 s  ClockTime = 233 s

Time = 1124s

smoothSolver:  Solving for Ux, Initial residual = 1.1003999e-06, Final residual = 4.1663852e-08, No Iterations 3
smoothSolver:  Solving for Uy, Initial residual = 8.6420245e-06, Final residual = 3.2585666e-07, No Iterations 3
smoothSolver:  Solving for Uz, Initial residual = 3.8976121e-07, Final residual = 1.4509001e-08, No Iterations 3
GAMG:  Solving for p, Initial residual = 1.0599144e-05, Final residual = 4.3312462e-08, No Iterations 3
time step continuity errors : sum local = 9.9302509e-09, global = -9.7876175e-11, cumulative = 0.00011283218
ExecutionTime = 230.33322 s  ClockTime = 233 s

Time = 1125s

smoothSolver:  Solving for Ux, Initial residual = 1.0894765e-06, Final residual = 4.1292767e-08, No Iterations 3
smoothSolver:  Solving for Uy, Initial residual = 8.5167767e-06, Final residual = 3.2037137e-07, No Iterations 3
smoothSolver:  Solving for Uz, Initial residual = 3.8547137e-07, Final residual = 1.4344711e-08, No Iterations 3
GAMG:  Solving for p, Initial residual = 1.0474783e-05, Final residual = 4.2843576e-08, No Iterations 3
time step continuity errors : sum local = 9.8227454e-09, global = -8.8213291e-11, cumulative = 0.00011283209
ExecutionTime = 230.53525 s  ClockTime = 234 s

Time = 1126s

smoothSolver:  Solving for Ux, Initial residual = 1.0785723e-06, Final residual = 4.0919007e-08, No Iterations 3
smoothSolver:  Solving for Uy, Initial residual = 8.3939443e-06, Final residual = 3.150259e-07, No Iterations 3
smoothSolver:  Solving for Uz, Initial residual = 3.8125741e-07, Final residual = 1.4183355e-08, No Iterations 3
GAMG:  Solving for p, Initial residual = 1.0351177e-05, Final residual = 4.2382531e-08, No Iterations 3
time step continuity errors : sum local = 9.7170378e-09, global = -7.7994645e-11, cumulative = 0.00011283201
ExecutionTime = 230.73685 s  ClockTime = 234 s

Time = 1127s

smoothSolver:  Solving for Ux, Initial residual = 1.0677066e-06, Final residual = 4.0538849e-08, No Iterations 3
smoothSolver:  Solving for Uy, Initial residual = 8.2732381e-06, Final residual = 3.097944e-07, No Iterations 3
smoothSolver:  Solving for Uz, Initial residual = 3.771138e-07, Final residual = 1.4025051e-08, No Iterations 3
GAMG:  Solving for p, Initial residual = 1.0228248e-05, Final residual = 4.1926377e-08, No Iterations 3
time step continuity errors : sum local = 9.6124516e-09, global = -6.7048417e-11, cumulative = 0.00011283194
ExecutionTime = 230.93912 s  ClockTime = 234 s

Time = 1128s

smoothSolver:  Solving for Ux, Initial residual = 1.0568246e-06, Final residual = 4.0153373e-08, No Iterations 3
smoothSolver:  Solving for Uy, Initial residual = 8.1545668e-06, Final residual = 3.0469688e-07, No Iterations 3
smoothSolver:  Solving for Uz, Initial residual = 3.7304522e-07, Final residual = 1.3870006e-08, No Iterations 3
GAMG:  Solving for p, Initial residual = 1.0106055e-05, Final residual = 4.1472684e-08, No Iterations 3
time step continuity errors : sum local = 9.5084297e-09, global = -5.5203339e-11, cumulative = 0.00011283189
ExecutionTime = 231.1398 s  ClockTime = 234 s

Time = 1129s

smoothSolver:  Solving for Ux, Initial residual = 1.0459758e-06, Final residual = 3.9760678e-08, No Iterations 3
smoothSolver:  Solving for Uy, Initial residual = 8.0378712e-06, Final residual = 2.997342e-07, No Iterations 3
smoothSolver:  Solving for Uz, Initial residual = 3.6903751e-07, Final residual = 1.3718734e-08, No Iterations 3
GAMG:  Solving for p, Initial residual = 9.9851164e-06, Final residual = 4.1019772e-08, No Iterations 3
time step continuity errors : sum local = 9.404587e-09, global = -4.2327328e-11, cumulative = 0.00011283185
ExecutionTime = 231.34972 s  ClockTime = 235 s


SIMPLE solution converged in 1129 iterations

End

Finalising parallel run
