/*---------------------------------------------------------------------------*\
  =========                 |
  \\      /  F ield         | OpenFOAM: The Open Source CFD Toolbox
   \\    /   O peration     | Website:  https://openfoam.org
    \\  /    A nd           | Version:  11
     \\/     M anipulation  |
\*---------------------------------------------------------------------------*/
Build  : 11-e1fc8c682ae6
Exec   : foamRun -solver incompressibleFluid -parallel
Date   : Feb 07 2026
Time   : 18:10:07
Host   : "ip-172-31-18-192"
PID    : 119975
I/O    : uncollated
Case   : /home/ubuntu/cases/bifurcation_angle30_750_ascii/Re400
nProcs : 16
Slaves : 
15
(
"ip-172-31-18-192.119976"
"ip-172-31-18-192.119977"
"ip-172-31-18-192.119978"
"ip-172-31-18-192.119979"
"ip-172-31-18-192.119980"
"ip-172-31-18-192.119981"
"ip-172-31-18-192.119982"
"ip-172-31-18-192.119983"
"ip-172-31-18-192.119984"
"ip-172-31-18-192.119985"
"ip-172-31-18-192.119986"
"ip-172-31-18-192.119987"
"ip-172-31-18-192.119988"
"ip-172-31-18-192.119989"
"ip-172-31-18-192.119990"
)

Pstream initialised with:
    floatTransfer      : false
    nProcsSimpleSum    : 0
    commsType          : nonBlocking
    polling iterations : 0
sigFpe : Enabling floating point exception trapping (FOAM_SIGFPE).
fileModificationChecking : Monitoring run-time modified files using timeStampMaster (fileModificationSkew 10)
allowSystemOperations : Allowing user-supplied system call operations

// * * * * * * * * * * * * * * * * * * * * * * * * * * * * * * * * * * * * * //
Create time

Create mesh for time = 0

Selecting solver incompressibleFluid
Selecting viscosity model Newtonian
Selecting turbulence model type laminar
Selecting laminar stress model Stokes
No MRF models present


SIMPLE: Convergence criteria found
        p: tolerance 1e-05
        U: tolerance 1e-05


SIMPLE: Operating solver in steady-state mode with 1 outer corrector
SIMPLE: Operating solver in SIMPLE mode



Starting time loop

wallShearStress wallShearStress:
    processing wall patches: 
        wall-fluid_domain

Time = 1s

smoothSolver:  Solving for Ux, Initial residual = 1, Final residual = 0.038287978, No Iterations 1
smoothSolver:  Solving for Uy, Initial residual = 1, Final residual = 0.046210246, No Iterations 1
smoothSolver:  Solving for Uz, Initial residual = 1, Final residual = 0.010897324, No Iterations 1
GAMG:  Solving for p, Initial residual = 1, Final residual = 0.0078172886, No Iterations 10
time step continuity errors : sum local = 0.00025411935, global = -5.3636423e-06, cumulative = -5.3636423e-06
ExecutionTime = 0.639696 s  ClockTime = 1 s

Time = 2s

smoothSolver:  Solving for Ux, Initial residual = 0.24000574, Final residual = 0.014026211, No Iterations 2
smoothSolver:  Solving for Uy, Initial residual = 0.36773555, Final residual = 0.018104086, No Iterations 2
smoothSolver:  Solving for Uz, Initial residual = 0.23272618, Final residual = 0.014214224, No Iterations 2
GAMG:  Solving for p, Initial residual = 0.41068172, Final residual = 0.0034691174, No Iterations 6
time step continuity errors : sum local = 0.0074430984, global = -0.0003843952, cumulative = -0.00038975884
ExecutionTime = 0.838269 s  ClockTime = 1 s

Time = 3s

smoothSolver:  Solving for Ux, Initial residual = 0.23733303, Final residual = 0.00771402, No Iterations 3
smoothSolver:  Solving for Uy, Initial residual = 0.14211157, Final residual = 0.0088622306, No Iterations 2
smoothSolver:  Solving for Uz, Initial residual = 0.47189758, Final residual = 0.016930177, No Iterations 3
GAMG:  Solving for p, Initial residual = 0.14972962, Final residual = 0.00099899035, No Iterations 3
time step continuity errors : sum local = 0.013279444, global = 6.8607482e-05, cumulative = -0.00032115136
ExecutionTime = 0.999811 s  ClockTime = 1 s

Time = 4s

smoothSolver:  Solving for Ux, Initial residual = 0.15669951, Final residual = 0.0053481382, No Iterations 3
smoothSolver:  Solving for Uy, Initial residual = 0.075553874, Final residual = 0.0047554343, No Iterations 2
smoothSolver:  Solving for Uz, Initial residual = 0.32299259, Final residual = 0.011600569, No Iterations 3
GAMG:  Solving for p, Initial residual = 0.10530009, Final residual = 0.00083907561, No Iterations 5
time step continuity errors : sum local = 0.011600724, global = -6.4627081e-05, cumulative = -0.00038577844
ExecutionTime = 1.180465 s  ClockTime = 1 s

Time = 5s

smoothSolver:  Solving for Ux, Initial residual = 0.08287978, Final residual = 0.0082591234, No Iterations 2
smoothSolver:  Solving for Uy, Initial residual = 0.17237661, Final residual = 0.012171536, No Iterations 2
smoothSolver:  Solving for Uz, Initial residual = 0.13087891, Final residual = 0.0047049222, No Iterations 3
GAMG:  Solving for p, Initial residual = 0.075672827, Final residual = 0.00070752236, No Iterations 6
time step continuity errors : sum local = 0.0052123495, global = 0.00037710399, cumulative = -8.6744462e-06
ExecutionTime = 1.365926 s  ClockTime = 2 s

Time = 6s

smoothSolver:  Solving for Ux, Initial residual = 0.067974234, Final residual = 0.005699328, No Iterations 2
smoothSolver:  Solving for Uy, Initial residual = 0.40258738, Final residual = 0.027761901, No Iterations 2
smoothSolver:  Solving for Uz, Initial residual = 0.04988282, Final residual = 0.0016879926, No Iterations 3
GAMG:  Solving for p, Initial residual = 0.4494712, Final residual = 0.0022086718, No Iterations 5
time step continuity errors : sum local = 0.0078389156, global = -0.00028880061, cumulative = -0.00029747505
ExecutionTime = 1.546717 s  ClockTime = 2 s

Time = 7s

smoothSolver:  Solving for Ux, Initial residual = 0.12123458, Final residual = 0.011806349, No Iterations 2
smoothSolver:  Solving for Uy, Initial residual = 0.26571167, Final residual = 0.01776089, No Iterations 2
smoothSolver:  Solving for Uz, Initial residual = 0.1758781, Final residual = 0.00633228, No Iterations 3
GAMG:  Solving for p, Initial residual = 0.25636893, Final residual = 0.0021580584, No Iterations 3
time step continuity errors : sum local = 0.015958906, global = -0.00026046266, cumulative = -0.00055793771
ExecutionTime = 1.708103 s  ClockTime = 2 s

Time = 8s

smoothSolver:  Solving for Ux, Initial residual = 0.11333899, Final residual = 0.0037004666, No Iterations 3
smoothSolver:  Solving for Uy, Initial residual = 0.1416114, Final residual = 0.009719004, No Iterations 2
smoothSolver:  Solving for Uz, Initial residual = 0.19845702, Final residual = 0.0071449645, No Iterations 3
GAMG:  Solving for p, Initial residual = 0.20008984, Final residual = 0.00099417304, No Iterations 5
time step continuity errors : sum local = 0.0065043425, global = 5.8625119e-05, cumulative = -0.00049931259
ExecutionTime = 1.886722 s  ClockTime = 2 s

Time = 9s

smoothSolver:  Solving for Ux, Initial residual = 0.064039333, Final residual = 0.0062468396, No Iterations 2
smoothSolver:  Solving for Uy, Initial residual = 0.23892567, Final residual = 0.019243684, No Iterations 2
smoothSolver:  Solving for Uz, Initial residual = 0.077157551, Final residual = 0.0027406397, No Iterations 3
GAMG:  Solving for p, Initial residual = 0.19340958, Final residual = 0.000870752, No Iterations 6
time step continuity errors : sum local = 0.0024133116, global = -0.00014221049, cumulative = -0.00064152308
ExecutionTime = 2.076281 s  ClockTime = 2 s

Time = 10s

smoothSolver:  Solving for Ux, Initial residual = 0.062434191, Final residual = 0.0057023085, No Iterations 2
smoothSolver:  Solving for Uy, Initial residual = 0.40324797, Final residual = 0.030271559, No Iterations 2
smoothSolver:  Solving for Uz, Initial residual = 0.057693975, Final residual = 0.0020473928, No Iterations 3
GAMG:  Solving for p, Initial residual = 0.31616199, Final residual = 0.0031189915, No Iterations 4
time step continuity errors : sum local = 0.0071235088, global = -0.00020885766, cumulative = -0.00085038075
ExecutionTime = 2.246704 s  ClockTime = 3 s

Time = 11s

smoothSolver:  Solving for Ux, Initial residual = 0.069998409, Final residual = 0.0069297341, No Iterations 2
smoothSolver:  Solving for Uy, Initial residual = 0.24576866, Final residual = 0.017250843, No Iterations 2
smoothSolver:  Solving for Uz, Initial residual = 0.096481866, Final residual = 0.0034808573, No Iterations 3
GAMG:  Solving for p, Initial residual = 0.21964004, Final residual = 0.0013707091, No Iterations 4
time step continuity errors : sum local = 0.0050033342, global = -1.5816794e-05, cumulative = -0.00086619754
ExecutionTime = 2.41756 s  ClockTime = 3 s

Time = 12s

smoothSolver:  Solving for Ux, Initial residual = 0.046614846, Final residual = 0.0015428134, No Iterations 3
smoothSolver:  Solving for Uy, Initial residual = 0.15106878, Final residual = 0.011857764, No Iterations 2
smoothSolver:  Solving for Uz, Initial residual = 0.068618317, Final residual = 0.0024727439, No Iterations 3
GAMG:  Solving for p, Initial residual = 0.17426184, Final residual = 0.0011555177, No Iterations 5
time step continuity errors : sum local = 0.0032927966, global = -2.6393076e-05, cumulative = -0.00089259062
ExecutionTime = 2.601492 s  ClockTime = 3 s

Time = 13s

smoothSolver:  Solving for Ux, Initial residual = 0.023431947, Final residual = 0.0022043143, No Iterations 2
smoothSolver:  Solving for Uy, Initial residual = 0.30044932, Final residual = 0.025569139, No Iterations 2
smoothSolver:  Solving for Uz, Initial residual = 0.017178464, Final residual = 0.00057373684, No Iterations 3
GAMG:  Solving for p, Initial residual = 0.24907653, Final residual = 0.001038723, No Iterations 6
time step continuity errors : sum local = 0.0010503851, global = 6.9943326e-05, cumulative = -0.00082264729
ExecutionTime = 2.789883 s  ClockTime = 3 s

Time = 14s

smoothSolver:  Solving for Ux, Initial residual = 0.029722131, Final residual = 0.0028161504, No Iterations 2
smoothSolver:  Solving for Uy, Initial residual = 0.34961816, Final residual = 0.027660086, No Iterations 2
smoothSolver:  Solving for Uz, Initial residual = 0.030622295, Final residual = 0.0010969767, No Iterations 3
GAMG:  Solving for p, Initial residual = 0.29602781, Final residual = 0.0021949207, No Iterations 4
time step continuity errors : sum local = 0.0029122538, global = 6.1130367e-05, cumulative = -0.00076151692
ExecutionTime = 2.961059 s  ClockTime = 3 s

Time = 15s

smoothSolver:  Solving for Ux, Initial residual = 0.033011725, Final residual = 0.0033002058, No Iterations 2
smoothSolver:  Solving for Uy, Initial residual = 0.19702519, Final residual = 0.014455431, No Iterations 2
smoothSolver:  Solving for Uz, Initial residual = 0.045791131, Final residual = 0.0016496509, No Iterations 3
GAMG:  Solving for p, Initial residual = 0.21886941, Final residual = 0.0016662502, No Iterations 4
time step continuity errors : sum local = 0.0028827028, global = 4.1178519e-06, cumulative = -0.00075739907
ExecutionTime = 3.131268 s  ClockTime = 3 s

Time = 16s

smoothSolver:  Solving for Ux, Initial residual = 0.022993526, Final residual = 0.00075676782, No Iterations 3
smoothSolver:  Solving for Uy, Initial residual = 0.14781856, Final residual = 0.012650446, No Iterations 2
smoothSolver:  Solving for Uz, Initial residual = 0.030915191, Final residual = 0.0011090307, No Iterations 3
GAMG:  Solving for p, Initial residual = 0.17419528, Final residual = 0.0013392158, No Iterations 5
time step continuity errors : sum local = 0.0016123594, global = 1.1834141e-05, cumulative = -0.00074556493
ExecutionTime = 3.313281 s  ClockTime = 4 s

Time = 17s

smoothSolver:  Solving for Ux, Initial residual = 0.012329047, Final residual = 0.0010893252, No Iterations 2
smoothSolver:  Solving for Uy, Initial residual = 0.28303605, Final residual = 0.024559047, No Iterations 2
smoothSolver:  Solving for Uz, Initial residual = 0.006590751, Final residual = 0.00060408413, No Iterations 2
GAMG:  Solving for p, Initial residual = 0.42671767, Final residual = 0.0038314505, No Iterations 5
time step continuity errors : sum local = 0.0011939843, global = 2.2368492e-05, cumulative = -0.00072319644
ExecutionTime = 3.492514 s  ClockTime = 4 s

Time = 18s

smoothSolver:  Solving for Ux, Initial residual = 0.016906468, Final residual = 0.0016534719, No Iterations 2
smoothSolver:  Solving for Uy, Initial residual = 0.26517529, Final residual = 0.021474611, No Iterations 2
smoothSolver:  Solving for Uz, Initial residual = 0.018698042, Final residual = 0.00067681594, No Iterations 3
GAMG:  Solving for p, Initial residual = 0.24147321, Final residual = 0.0015727524, No Iterations 4
time step continuity errors : sum local = 0.0012739385, global = -9.9090637e-06, cumulative = -0.0007331055
ExecutionTime = 3.661743 s  ClockTime = 4 s

Time = 19s

smoothSolver:  Solving for Ux, Initial residual = 0.015588047, Final residual = 0.00050785927, No Iterations 3
smoothSolver:  Solving for Uy, Initial residual = 0.14907624, Final residual = 0.011518087, No Iterations 2
smoothSolver:  Solving for Uz, Initial residual = 0.021113816, Final residual = 0.0007655609, No Iterations 3
GAMG:  Solving for p, Initial residual = 0.18760503, Final residual = 0.0017353005, No Iterations 4
time step continuity errors : sum local = 0.0015596964, global = 1.1451811e-05, cumulative = -0.00072165369
ExecutionTime = 3.833971 s  ClockTime = 4 s

Time = 20s

smoothSolver:  Solving for Ux, Initial residual = 0.010020083, Final residual = 0.00033712601, No Iterations 3
smoothSolver:  Solving for Uy, Initial residual = 0.13743143, Final residual = 0.012547107, No Iterations 2
smoothSolver:  Solving for Uz, Initial residual = 0.011573196, Final residual = 0.00041804482, No Iterations 3
GAMG:  Solving for p, Initial residual = 0.1433079, Final residual = 0.0012971752, No Iterations 5
time step continuity errors : sum local = 0.00076941309, global = -1.1505111e-05, cumulative = -0.0007331588
ExecutionTime = 4.012796 s  ClockTime = 4 s

Time = 21s

smoothSolver:  Solving for Ux, Initial residual = 0.0064816089, Final residual = 0.00059145246, No Iterations 2
smoothSolver:  Solving for Uy, Initial residual = 0.20631725, Final residual = 0.018262784, No Iterations 2
smoothSolver:  Solving for Uz, Initial residual = 0.0036465856, Final residual = 0.00035155284, No Iterations 2
GAMG:  Solving for p, Initial residual = 0.36998361, Final residual = 0.0025235169, No Iterations 5
time step continuity errors : sum local = 0.000494869, global = -1.0760058e-05, cumulative = -0.00074391886
ExecutionTime = 4.190324 s  ClockTime = 5 s

Time = 22s

smoothSolver:  Solving for Ux, Initial residual = 0.0081783392, Final residual = 0.00079597889, No Iterations 2
smoothSolver:  Solving for Uy, Initial residual = 0.16744225, Final residual = 0.013913493, No Iterations 2
smoothSolver:  Solving for Uz, Initial residual = 0.0095565196, Final residual = 0.00034115226, No Iterations 3
GAMG:  Solving for p, Initial residual = 0.22113279, Final residual = 0.0012392474, No Iterations 4
time step continuity errors : sum local = 0.00054276145, global = 7.474423e-06, cumulative = -0.00073644444
ExecutionTime = 4.358864 s  ClockTime = 5 s

Time = 23s

smoothSolver:  Solving for Ux, Initial residual = 0.0068743119, Final residual = 0.00021794142, No Iterations 3
smoothSolver:  Solving for Uy, Initial residual = 0.094512727, Final residual = 0.0077224744, No Iterations 2
smoothSolver:  Solving for Uz, Initial residual = 0.009493454, Final residual = 0.00033912109, No Iterations 3
GAMG:  Solving for p, Initial residual = 0.17442635, Final residual = 0.00078749339, No Iterations 5
time step continuity errors : sum local = 0.00033945753, global = 1.1063671e-07, cumulative = -0.0007363338
ExecutionTime = 4.544508 s  ClockTime = 5 s

Time = 24s

smoothSolver:  Solving for Ux, Initial residual = 0.0043838506, Final residual = 0.00013714228, No Iterations 3
smoothSolver:  Solving for Uy, Initial residual = 0.10086162, Final residual = 0.0094204669, No Iterations 2
smoothSolver:  Solving for Uz, Initial residual = 0.0043035075, Final residual = 0.00014915808, No Iterations 3
GAMG:  Solving for p, Initial residual = 0.1433417, Final residual = 0.0013745353, No Iterations 5
time step continuity errors : sum local = 0.00035367303, global = 5.991398e-06, cumulative = -0.0007303424
ExecutionTime = 4.735795 s  ClockTime = 5 s

Time = 25s

smoothSolver:  Solving for Ux, Initial residual = 0.0042118918, Final residual = 0.00041173865, No Iterations 2
smoothSolver:  Solving for Uy, Initial residual = 0.12460366, Final residual = 0.011208831, No Iterations 2
smoothSolver:  Solving for Uz, Initial residual = 0.0031742941, Final residual = 0.00011000101, No Iterations 3
GAMG:  Solving for p, Initial residual = 0.16902335, Final residual = 0.00083122053, No Iterations 5
time step continuity errors : sum local = 0.00019674744, global = 3.2288232e-06, cumulative = -0.00072711358
ExecutionTime = 4.914597 s  ClockTime = 5 s

Time = 26s

smoothSolver:  Solving for Ux, Initial residual = 0.0047040363, Final residual = 0.00015307032, No Iterations 3
smoothSolver:  Solving for Uy, Initial residual = 0.094424033, Final residual = 0.0081965565, No Iterations 2
smoothSolver:  Solving for Uz, Initial residual = 0.00533911, Final residual = 0.00019391044, No Iterations 3
GAMG:  Solving for p, Initial residual = 0.14113297, Final residual = 0.00094244416, No Iterations 4
time step continuity errors : sum local = 0.00031245246, global = 8.8999818e-07, cumulative = -0.00072622358
ExecutionTime = 5.084676 s  ClockTime = 5 s

Time = 27s

smoothSolver:  Solving for Ux, Initial residual = 0.0038101677, Final residual = 0.00012979465, No Iterations 3
smoothSolver:  Solving for Uy, Initial residual = 0.05947342, Final residual = 0.0054656025, No Iterations 2
smoothSolver:  Solving for Uz, Initial residual = 0.0045997519, Final residual = 0.00016692783, No Iterations 3
GAMG:  Solving for p, Initial residual = 0.10590307, Final residual = 0.00057300199, No Iterations 5
time step continuity errors : sum local = 0.0001789944, global = -1.5920927e-06, cumulative = -0.00072781567
ExecutionTime = 5.263935 s  ClockTime = 6 s

Time = 28s

smoothSolver:  Solving for Ux, Initial residual = 0.0030065984, Final residual = 9.9217235e-05, No Iterations 3
smoothSolver:  Solving for Uy, Initial residual = 0.06607807, Final residual = 0.0063764591, No Iterations 2
smoothSolver:  Solving for Uz, Initial residual = 0.0024736464, Final residual = 8.6183714e-05, No Iterations 3
GAMG:  Solving for p, Initial residual = 0.080984841, Final residual = 0.00071872431, No Iterations 5
time step continuity errors : sum local = 0.0001611313, global = -3.4878249e-06, cumulative = -0.0007313035
ExecutionTime = 5.445002 s  ClockTime = 6 s

Time = 29s

smoothSolver:  Solving for Ux, Initial residual = 0.002622492, Final residual = 0.00025750094, No Iterations 2
smoothSolver:  Solving for Uy, Initial residual = 0.069897101, Final residual = 0.0064939386, No Iterations 2
smoothSolver:  Solving for Uz, Initial residual = 0.0020250799, Final residual = 6.7288304e-05, No Iterations 3
GAMG:  Solving for p, Initial residual = 0.14193056, Final residual = 0.0012329534, No Iterations 4
time step continuity errors : sum local = 0.00020042845, global = 3.810848e-06, cumulative = -0.00072749265
ExecutionTime = 5.612409 s  ClockTime = 6 s

Time = 30s

smoothSolver:  Solving for Ux, Initial residual = 0.0024000376, Final residual = 0.00023853835, No Iterations 2
smoothSolver:  Solving for Uy, Initial residual = 0.052252168, Final residual = 0.0048281839, No Iterations 2
smoothSolver:  Solving for Uz, Initial residual = 0.0025929707, Final residual = 9.0016621e-05, No Iterations 3
GAMG:  Solving for p, Initial residual = 0.12337149, Final residual = 0.0009128291, No Iterations 4
time step continuity errors : sum local = 0.0001761365, global = 1.6800294e-07, cumulative = -0.00072732465
ExecutionTime = 5.78033 s  ClockTime = 6 s

Time = 31s

smoothSolver:  Solving for Ux, Initial residual = 0.0020498651, Final residual = 6.5822137e-05, No Iterations 3
smoothSolver:  Solving for Uy, Initial residual = 0.039678567, Final residual = 0.0039147978, No Iterations 2
smoothSolver:  Solving for Uz, Initial residual = 0.0020512336, Final residual = 7.0170474e-05, No Iterations 3
GAMG:  Solving for p, Initial residual = 0.093364615, Final residual = 0.0005055392, No Iterations 5
time step continuity errors : sum local = 8.8046772e-05, global = 4.5030286e-08, cumulative = -0.00072727962
ExecutionTime = 5.959389 s  ClockTime = 6 s

Time = 32s

smoothSolver:  Solving for Ux, Initial residual = 0.0021206733, Final residual = 6.9608371e-05, No Iterations 3
smoothSolver:  Solving for Uy, Initial residual = 0.043649815, Final residual = 0.004334332, No Iterations 2
smoothSolver:  Solving for Uz, Initial residual = 0.0016828154, Final residual = 5.7335848e-05, No Iterations 3
GAMG:  Solving for p, Initial residual = 0.066064665, Final residual = 0.00042044369, No Iterations 5
time step continuity errors : sum local = 7.0656711e-05, global = 8.0093652e-07, cumulative = -0.00072647868
ExecutionTime = 6.137034 s  ClockTime = 7 s

Time = 33s

smoothSolver:  Solving for Ux, Initial residual = 0.0022757866, Final residual = 7.6033192e-05, No Iterations 3
smoothSolver:  Solving for Uy, Initial residual = 0.042723129, Final residual = 0.0041729943, No Iterations 2
smoothSolver:  Solving for Uz, Initial residual = 0.0020746921, Final residual = 7.2905686e-05, No Iterations 3
GAMG:  Solving for p, Initial residual = 0.064978932, Final residual = 0.00049720459, No Iterations 4
time step continuity errors : sum local = 0.00010183475, global = -6.8220327e-07, cumulative = -0.00072716088
ExecutionTime = 6.306507 s  ClockTime = 7 s

Time = 34s

smoothSolver:  Solving for Ux, Initial residual = 0.0021825852, Final residual = 7.4611437e-05, No Iterations 3
smoothSolver:  Solving for Uy, Initial residual = 0.034879861, Final residual = 0.0010947347, No Iterations 3
smoothSolver:  Solving for Uz, Initial residual = 0.0021877585, Final residual = 7.7447123e-05, No Iterations 3
GAMG:  Solving for p, Initial residual = 0.05800808, Final residual = 0.00050116799, No Iterations 4
time step continuity errors : sum local = 0.00010822932, global = 5.2088627e-07, cumulative = -0.00072664
ExecutionTime = 6.476286 s  ClockTime = 7 s

Time = 35s

smoothSolver:  Solving for Ux, Initial residual = 0.0020259822, Final residual = 6.9759104e-05, No Iterations 3
smoothSolver:  Solving for Uy, Initial residual = 0.030960673, Final residual = 0.0010130173, No Iterations 3
smoothSolver:  Solving for Uz, Initial residual = 0.0019444985, Final residual = 6.8226788e-05, No Iterations 3
GAMG:  Solving for p, Initial residual = 0.044328484, Final residual = 0.00023358238, No Iterations 5
time step continuity errors : sum local = 4.7858641e-05, global = -4.2475606e-07, cumulative = -0.00072706475
ExecutionTime = 6.656549 s  ClockTime = 7 s

Time = 36s

smoothSolver:  Solving for Ux, Initial residual = 0.0019142546, Final residual = 6.4803389e-05, No Iterations 3
smoothSolver:  Solving for Uy, Initial residual = 0.031462364, Final residual = 0.0010172261, No Iterations 3
smoothSolver:  Solving for Uz, Initial residual = 0.0016508525, Final residual = 5.7041687e-05, No Iterations 3
GAMG:  Solving for p, Initial residual = 0.044245606, Final residual = 0.00020417177, No Iterations 5
time step continuity errors : sum local = 3.7665773e-05, global = -3.1301161e-07, cumulative = -0.00072737776
ExecutionTime = 6.836063 s  ClockTime = 7 s

Time = 37s

smoothSolver:  Solving for Ux, Initial residual = 0.001809882, Final residual = 6.0640647e-05, No Iterations 3
smoothSolver:  Solving for Uy, Initial residual = 0.029576087, Final residual = 0.00095318375, No Iterations 3
smoothSolver:  Solving for Uz, Initial residual = 0.0015263366, Final residual = 5.2224153e-05, No Iterations 3
GAMG:  Solving for p, Initial residual = 0.053778636, Final residual = 0.00040984646, No Iterations 4
time step continuity errors : sum local = 6.9848848e-05, global = 7.9641472e-07, cumulative = -0.00072658135
ExecutionTime = 7.006757 s  ClockTime = 7 s

Time = 38s

smoothSolver:  Solving for Ux, Initial residual = 0.0017366099, Final residual = 5.8579646e-05, No Iterations 3
smoothSolver:  Solving for Uy, Initial residual = 0.02639141, Final residual = 0.00087267169, No Iterations 3
smoothSolver:  Solving for Uz, Initial residual = 0.001499896, Final residual = 5.1367326e-05, No Iterations 3
GAMG:  Solving for p, Initial residual = 0.04961148, Final residual = 0.00044644018, No Iterations 4
time step continuity errors : sum local = 7.5535509e-05, global = -1.2653547e-07, cumulative = -0.00072670789
ExecutionTime = 7.177568 s  ClockTime = 8 s

Time = 39s

smoothSolver:  Solving for Ux, Initial residual = 0.001736273, Final residual = 5.8969705e-05, No Iterations 3
smoothSolver:  Solving for Uy, Initial residual = 0.025392631, Final residual = 0.00085078624, No Iterations 3
smoothSolver:  Solving for Uz, Initial residual = 0.0015184262, Final residual = 5.2321138e-05, No Iterations 3
GAMG:  Solving for p, Initial residual = 0.039417778, Final residual = 0.00016641291, No Iterations 5
time step continuity errors : sum local = 2.9417803e-05, global = -5.1955586e-07, cumulative = -0.00072722744
ExecutionTime = 7.359234 s  ClockTime = 8 s

Time = 40s

smoothSolver:  Solving for Ux, Initial residual = 0.0017684226, Final residual = 6.0275475e-05, No Iterations 3
smoothSolver:  Solving for Uy, Initial residual = 0.025252753, Final residual = 0.00084174428, No Iterations 3
smoothSolver:  Solving for Uz, Initial residual = 0.0015849635, Final residual = 5.5030291e-05, No Iterations 3
GAMG:  Solving for p, Initial residual = 0.035472263, Final residual = 0.00034606914, No Iterations 4
time step continuity errors : sum local = 6.4927138e-05, global = -2.2762304e-07, cumulative = -0.00072745506
ExecutionTime = 7.531033 s  ClockTime = 8 s

Time = 41s

smoothSolver:  Solving for Ux, Initial residual = 0.0017691354, Final residual = 6.0560282e-05, No Iterations 3
smoothSolver:  Solving for Uy, Initial residual = 0.024171018, Final residual = 0.00080875653, No Iterations 3
smoothSolver:  Solving for Uz, Initial residual = 0.0016256741, Final residual = 5.6691232e-05, No Iterations 3
GAMG:  Solving for p, Initial residual = 0.034671767, Final residual = 0.00020005984, No Iterations 4
time step continuity errors : sum local = 3.8909514e-05, global = 8.6712061e-08, cumulative = -0.00072736835
ExecutionTime = 7.704527 s  ClockTime = 8 s

Time = 42s

smoothSolver:  Solving for Ux, Initial residual = 0.0017412019, Final residual = 5.975737e-05, No Iterations 3
smoothSolver:  Solving for Uy, Initial residual = 0.022920235, Final residual = 0.00077437353, No Iterations 3
smoothSolver:  Solving for Uz, Initial residual = 0.0016062028, Final residual = 5.6017875e-05, No Iterations 3
GAMG:  Solving for p, Initial residual = 0.032525385, Final residual = 0.00013247792, No Iterations 5
time step continuity errors : sum local = 2.5932936e-05, global = 2.4990768e-07, cumulative = -0.00072711844
ExecutionTime = 7.885213 s  ClockTime = 8 s

Time = 43s

smoothSolver:  Solving for Ux, Initial residual = 0.001708247, Final residual = 5.8523724e-05, No Iterations 3
smoothSolver:  Solving for Uy, Initial residual = 0.02221748, Final residual = 0.00075265905, No Iterations 3
smoothSolver:  Solving for Uz, Initial residual = 0.0015440015, Final residual = 5.3700061e-05, No Iterations 3
GAMG:  Solving for p, Initial residual = 0.031037545, Final residual = 0.00013127903, No Iterations 5
time step continuity errors : sum local = 2.5327456e-05, global = 2.9249037e-07, cumulative = -0.00072682595
ExecutionTime = 8.065779 s  ClockTime = 8 s

Time = 44s

smoothSolver:  Solving for Ux, Initial residual = 0.0016769902, Final residual = 5.7261539e-05, No Iterations 3
smoothSolver:  Solving for Uy, Initial residual = 0.02161788, Final residual = 0.00073109305, No Iterations 3
smoothSolver:  Solving for Uz, Initial residual = 0.0014831266, Final residual = 5.1426094e-05, No Iterations 3
GAMG:  Solving for p, Initial residual = 0.03178357, Final residual = 0.00030562702, No Iterations 4
time step continuity errors : sum local = 5.7868521e-05, global = 6.4503284e-07, cumulative = -0.00072618092
ExecutionTime = 8.23772 s  ClockTime = 9 s

Time = 45s

smoothSolver:  Solving for Ux, Initial residual = 0.001651679, Final residual = 5.6341559e-05, No Iterations 3
smoothSolver:  Solving for Uy, Initial residual = 0.020817988, Final residual = 0.00070561134, No Iterations 3
smoothSolver:  Solving for Uz, Initial residual = 0.0014491439, Final residual = 5.0190627e-05, No Iterations 3
GAMG:  Solving for p, Initial residual = 0.032071195, Final residual = 0.00016695874, No Iterations 4
time step continuity errors : sum local = 3.139545e-05, global = 3.2886868e-07, cumulative = -0.00072585205
ExecutionTime = 8.407325 s  ClockTime = 9 s

Time = 46s

smoothSolver:  Solving for Ux, Initial residual = 0.0016366025, Final residual = 5.5858153e-05, No Iterations 3
smoothSolver:  Solving for Uy, Initial residual = 0.020106974, Final residual = 0.00068375972, No Iterations 3
smoothSolver:  Solving for Uz, Initial residual = 0.0014347515, Final residual = 4.9723172e-05, No Iterations 3
GAMG:  Solving for p, Initial residual = 0.030826686, Final residual = 0.00026494404, No Iterations 4
time step continuity errors : sum local = 5.009495e-05, global = -3.1421937e-07, cumulative = -0.00072616627
ExecutionTime = 8.577415 s  ClockTime = 9 s

Time = 47s

smoothSolver:  Solving for Ux, Initial residual = 0.0016310306, Final residual = 5.5719438e-05, No Iterations 3
smoothSolver:  Solving for Uy, Initial residual = 0.019577906, Final residual = 0.00066671125, No Iterations 3
smoothSolver:  Solving for Uz, Initial residual = 0.0014326819, Final residual = 4.9734236e-05, No Iterations 3
GAMG:  Solving for p, Initial residual = 0.029507627, Final residual = 0.00026431751, No Iterations 4
time step continuity errors : sum local = 5.0641825e-05, global = -3.7244974e-07, cumulative = -0.00072653872
ExecutionTime = 8.751386 s  ClockTime = 9 s

Time = 48s

smoothSolver:  Solving for Ux, Initial residual = 0.001627764, Final residual = 5.5629391e-05, No Iterations 3
smoothSolver:  Solving for Uy, Initial residual = 0.019080837, Final residual = 0.00065018312, No Iterations 3
smoothSolver:  Solving for Uz, Initial residual = 0.0014341772, Final residual = 4.9884803e-05, No Iterations 3
GAMG:  Solving for p, Initial residual = 0.028777983, Final residual = 0.00023262406, No Iterations 4
time step continuity errors : sum local = 4.5250798e-05, global = -2.2778106e-07, cumulative = -0.0007267665
ExecutionTime = 8.921892 s  ClockTime = 9 s

Time = 49s

smoothSolver:  Solving for Ux, Initial residual = 0.0016205082, Final residual = 5.5370824e-05, No Iterations 3
smoothSolver:  Solving for Uy, Initial residual = 0.018556385, Final residual = 0.00063314578, No Iterations 3
smoothSolver:  Solving for Uz, Initial residual = 0.0014285622, Final residual = 4.9750155e-05, No Iterations 3
GAMG:  Solving for p, Initial residual = 0.028221386, Final residual = 0.00026903504, No Iterations 3
time step continuity errors : sum local = 5.2894034e-05, global = 4.0656234e-07, cumulative = -0.00072635994
ExecutionTime = 9.085449 s  ClockTime = 9 s

Time = 50s

smoothSolver:  Solving for Ux, Initial residual = 0.0016074927, Final residual = 5.4905854e-05, No Iterations 3
smoothSolver:  Solving for Uy, Initial residual = 0.01803766, Final residual = 0.00061643978, No Iterations 3
smoothSolver:  Solving for Uz, Initial residual = 0.0014140411, Final residual = 4.9279577e-05, No Iterations 3
GAMG:  Solving for p, Initial residual = 0.027665462, Final residual = 0.00025237333, No Iterations 4
time step continuity errors : sum local = 4.989023e-05, global = 5.5569532e-07, cumulative = -0.00072580425
ExecutionTime = 9.257261 s  ClockTime = 10 s

Time = 51s

smoothSolver:  Solving for Ux, Initial residual = 0.0015977659, Final residual = 5.4552775e-05, No Iterations 3
smoothSolver:  Solving for Uy, Initial residual = 0.01758961, Final residual = 0.00060179712, No Iterations 3
smoothSolver:  Solving for Uz, Initial residual = 0.0013927741, Final residual = 4.8534796e-05, No Iterations 3
GAMG:  Solving for p, Initial residual = 0.027235947, Final residual = 0.00011785402, No Iterations 5
time step continuity errors : sum local = 2.3339099e-05, global = 2.290858e-07, cumulative = -0.00072557516
ExecutionTime = 9.438929 s  ClockTime = 10 s

Time = 52s

smoothSolver:  Solving for Ux, Initial residual = 0.0015865626, Final residual = 5.4137969e-05, No Iterations 3
smoothSolver:  Solving for Uy, Initial residual = 0.017158734, Final residual = 0.0005875055, No Iterations 3
smoothSolver:  Solving for Uz, Initial residual = 0.0013679514, Final residual = 4.7645997e-05, No Iterations 3
GAMG:  Solving for p, Initial residual = 0.027037582, Final residual = 0.00024711479, No Iterations 4
time step continuity errors : sum local = 4.8883221e-05, global = 4.6644896e-07, cumulative = -0.00072510871
ExecutionTime = 9.61192 s  ClockTime = 10 s

Time = 53s

smoothSolver:  Solving for Ux, Initial residual = 0.0015752335, Final residual = 5.3743019e-05, No Iterations 3
smoothSolver:  Solving for Uy, Initial residual = 0.016722227, Final residual = 0.00057291451, No Iterations 3
smoothSolver:  Solving for Uz, Initial residual = 0.0013489447, Final residual = 4.6987146e-05, No Iterations 3
GAMG:  Solving for p, Initial residual = 0.026670105, Final residual = 0.00025553938, No Iterations 3
time step continuity errors : sum local = 5.0629825e-05, global = 9.1090971e-07, cumulative = -0.0007241978
ExecutionTime = 9.773514 s  ClockTime = 10 s

Time = 54s

smoothSolver:  Solving for Ux, Initial residual = 0.0015630795, Final residual = 5.3345007e-05, No Iterations 3
smoothSolver:  Solving for Uy, Initial residual = 0.016276349, Final residual = 0.00055817597, No Iterations 3
smoothSolver:  Solving for Uz, Initial residual = 0.0013350546, Final residual = 4.6535261e-05, No Iterations 3
GAMG:  Solving for p, Initial residual = 0.026108095, Final residual = 0.00015225509, No Iterations 4
time step continuity errors : sum local = 3.0304663e-05, global = 2.9153416e-07, cumulative = -0.00072390627
ExecutionTime = 9.945218 s  ClockTime = 10 s

Time = 55s

smoothSolver:  Solving for Ux, Initial residual = 0.0015548213, Final residual = 5.3076677e-05, No Iterations 3
smoothSolver:  Solving for Uy, Initial residual = 0.015864813, Final residual = 0.00054434631, No Iterations 3
smoothSolver:  Solving for Uz, Initial residual = 0.0013216397, Final residual = 4.6082466e-05, No Iterations 3
GAMG:  Solving for p, Initial residual = 0.025711594, Final residual = 0.00015186708, No Iterations 4
time step continuity errors : sum local = 3.0373996e-05, global = 1.1325005e-07, cumulative = -0.00072379302
ExecutionTime = 10.116785 s  ClockTime = 11 s

Time = 56s

smoothSolver:  Solving for Ux, Initial residual = 0.0015475058, Final residual = 5.2861987e-05, No Iterations 3
smoothSolver:  Solving for Uy, Initial residual = 0.015470729, Final residual = 0.00053143901, No Iterations 3
smoothSolver:  Solving for Uz, Initial residual = 0.0013095725, Final residual = 4.5692607e-05, No Iterations 3
GAMG:  Solving for p, Initial residual = 0.02544865, Final residual = 0.00024772393, No Iterations 3
time step continuity errors : sum local = 4.9819312e-05, global = 1.6707687e-07, cumulative = -0.00072362594
ExecutionTime = 10.277057 s  ClockTime = 11 s

Time = 57s

smoothSolver:  Solving for Ux, Initial residual = 0.0015385569, Final residual = 5.261992e-05, No Iterations 3
smoothSolver:  Solving for Uy, Initial residual = 0.015098076, Final residual = 0.00051931512, No Iterations 3
smoothSolver:  Solving for Uz, Initial residual = 0.0012980019, Final residual = 4.5326952e-05, No Iterations 3
GAMG:  Solving for p, Initial residual = 0.02509225, Final residual = 0.00015522441, No Iterations 4
time step continuity errors : sum local = 3.138076e-05, global = 1.7666642e-07, cumulative = -0.00072344927
ExecutionTime = 10.449411 s  ClockTime = 11 s

Time = 58s

smoothSolver:  Solving for Ux, Initial residual = 0.0015332806, Final residual = 5.2507082e-05, No Iterations 3
smoothSolver:  Solving for Uy, Initial residual = 0.014763143, Final residual = 0.00050833678, No Iterations 3
smoothSolver:  Solving for Uz, Initial residual = 0.0012873536, Final residual = 4.4988792e-05, No Iterations 3
GAMG:  Solving for p, Initial residual = 0.024787472, Final residual = 0.00024613565, No Iterations 3
time step continuity errors : sum local = 5.0029898e-05, global = 6.127522e-07, cumulative = -0.00072283652
ExecutionTime = 10.610433 s  ClockTime = 11 s

Time = 59s

smoothSolver:  Solving for Ux, Initial residual = 0.0015246741, Final residual = 5.2273718e-05, No Iterations 3
smoothSolver:  Solving for Uy, Initial residual = 0.014428143, Final residual = 0.00049735456, No Iterations 3
smoothSolver:  Solving for Uz, Initial residual = 0.0012756665, Final residual = 4.4624888e-05, No Iterations 3
GAMG:  Solving for p, Initial residual = 0.024436143, Final residual = 0.00016752597, No Iterations 4
time step continuity errors : sum local = 3.4212835e-05, global = 4.9593836e-07, cumulative = -0.00072234058
ExecutionTime = 10.782091 s  ClockTime = 11 s

Time = 60s

smoothSolver:  Solving for Ux, Initial residual = 0.0015181437, Final residual = 5.2092567e-05, No Iterations 3
smoothSolver:  Solving for Uy, Initial residual = 0.014103023, Final residual = 0.00048674633, No Iterations 3
smoothSolver:  Solving for Uz, Initial residual = 0.0012623654, Final residual = 4.419035e-05, No Iterations 3
GAMG:  Solving for p, Initial residual = 0.024251061, Final residual = 0.00016982226, No Iterations 4
time step continuity errors : sum local = 3.4819007e-05, global = 5.7187503e-07, cumulative = -0.00072176871
ExecutionTime = 10.954898 s  ClockTime = 11 s

Time = 61s

smoothSolver:  Solving for Ux, Initial residual = 0.0015100242, Final residual = 5.1861669e-05, No Iterations 3
smoothSolver:  Solving for Uy, Initial residual = 0.013780294, Final residual = 0.00047628994, No Iterations 3
smoothSolver:  Solving for Uz, Initial residual = 0.0012483092, Final residual = 4.3723233e-05, No Iterations 3
GAMG:  Solving for p, Initial residual = 0.024014618, Final residual = 0.00016575888, No Iterations 4
time step continuity errors : sum local = 3.4098053e-05, global = 5.318751e-07, cumulative = -0.00072123683
ExecutionTime = 11.1256 s  ClockTime = 12 s

Time = 62s

smoothSolver:  Solving for Ux, Initial residual = 0.0015007419, Final residual = 5.1600228e-05, No Iterations 3
smoothSolver:  Solving for Uy, Initial residual = 0.013468523, Final residual = 0.00046618016, No Iterations 3
smoothSolver:  Solving for Uz, Initial residual = 0.0012344938, Final residual = 4.3264029e-05, No Iterations 3
GAMG:  Solving for p, Initial residual = 0.023807593, Final residual = 0.00023375323, No Iterations 3
time step continuity errors : sum local = 4.8230935e-05, global = 9.3750972e-07, cumulative = -0.00072029932
ExecutionTime = 11.286516 s  ClockTime = 12 s

Time = 63s

smoothSolver:  Solving for Ux, Initial residual = 0.0014902919, Final residual = 5.1286663e-05, No Iterations 3
smoothSolver:  Solving for Uy, Initial residual = 0.013170925, Final residual = 0.00045659352, No Iterations 3
smoothSolver:  Solving for Uz, Initial residual = 0.0012225698, Final residual = 4.287876e-05, No Iterations 3
GAMG:  Solving for p, Initial residual = 0.023537363, Final residual = 0.00015938603, No Iterations 4
time step continuity errors : sum local = 3.30133e-05, global = 4.3148411e-07, cumulative = -0.00071986784
ExecutionTime = 11.459391 s  ClockTime = 12 s

Time = 64s

smoothSolver:  Solving for Ux, Initial residual = 0.0014830709, Final residual = 5.1076528e-05, No Iterations 3
smoothSolver:  Solving for Uy, Initial residual = 0.012902118, Final residual = 0.00044793927, No Iterations 3
smoothSolver:  Solving for Uz, Initial residual = 0.0012096806, Final residual = 4.2440653e-05, No Iterations 3
GAMG:  Solving for p, Initial residual = 0.023402476, Final residual = 0.0001454563, No Iterations 4
time step continuity errors : sum local = 3.0221039e-05, global = 3.8589058e-07, cumulative = -0.00071948195
ExecutionTime = 11.629997 s  ClockTime = 12 s

Time = 65s

smoothSolver:  Solving for Ux, Initial residual = 0.0014767207, Final residual = 5.0900894e-05, No Iterations 3
smoothSolver:  Solving for Uy, Initial residual = 0.012658705, Final residual = 0.00044018134, No Iterations 3
smoothSolver:  Solving for Uz, Initial residual = 0.0011977854, Final residual = 4.2042662e-05, No Iterations 3
GAMG:  Solving for p, Initial residual = 0.023228848, Final residual = 0.00023202631, No Iterations 3
time step continuity errors : sum local = 4.8373479e-05, global = 5.4544053e-07, cumulative = -0.00071893651
ExecutionTime = 11.790152 s  ClockTime = 12 s

Time = 66s

smoothSolver:  Solving for Ux, Initial residual = 0.0014686518, Final residual = 5.0680412e-05, No Iterations 3
smoothSolver:  Solving for Uy, Initial residual = 0.012422387, Final residual = 0.0004326815, No Iterations 3
smoothSolver:  Solving for Uz, Initial residual = 0.0011871724, Final residual = 4.1698386e-05, No Iterations 3
GAMG:  Solving for p, Initial residual = 0.022957848, Final residual = 0.00013492439, No Iterations 4
time step continuity errors : sum local = 2.8244068e-05, global = 3.0866112e-07, cumulative = -0.00071862785
ExecutionTime = 11.961508 s  ClockTime = 12 s

Time = 67s

smoothSolver:  Solving for Ux, Initial residual = 0.001463475, Final residual = 5.0582125e-05, No Iterations 3
smoothSolver:  Solving for Uy, Initial residual = 0.012192397, Final residual = 0.00042516605, No Iterations 3
smoothSolver:  Solving for Uz, Initial residual = 0.0011762738, Final residual = 4.1336446e-05, No Iterations 3
GAMG:  Solving for p, Initial residual = 0.022811588, Final residual = 0.00022595898, No Iterations 3
time step continuity errors : sum local = 4.7493175e-05, global = 5.786372e-07, cumulative = -0.00071804921
ExecutionTime = 12.122898 s  ClockTime = 13 s

Time = 68s

smoothSolver:  Solving for Ux, Initial residual = 0.0014555618, Final residual = 5.0389142e-05, No Iterations 3
smoothSolver:  Solving for Uy, Initial residual = 0.0119507, Final residual = 0.00041707743, No Iterations 3
smoothSolver:  Solving for Uz, Initial residual = 0.0011656971, Final residual = 4.0993858e-05, No Iterations 3
GAMG:  Solving for p, Initial residual = 0.022635393, Final residual = 0.00013396531, No Iterations 4
time step continuity errors : sum local = 2.8275196e-05, global = 3.9366784e-07, cumulative = -0.00071765554
ExecutionTime = 12.301397 s  ClockTime = 13 s

Time = 69s

smoothSolver:  Solving for Ux, Initial residual = 0.0014495356, Final residual = 5.0261748e-05, No Iterations 3
smoothSolver:  Solving for Uy, Initial residual = 0.011710685, Final residual = 0.00040908227, No Iterations 3
smoothSolver:  Solving for Uz, Initial residual = 0.0011549073, Final residual = 4.0628657e-05, No Iterations 3
GAMG:  Solving for p, Initial residual = 0.022480622, Final residual = 0.00013048726, No Iterations 4
time step continuity errors : sum local = 2.7654891e-05, global = 3.9808386e-07, cumulative = -0.00071725746
ExecutionTime = 12.470808 s  ClockTime = 13 s

Time = 70s

smoothSolver:  Solving for Ux, Initial residual = 0.0014423084, Final residual = 5.0069701e-05, No Iterations 3
smoothSolver:  Solving for Uy, Initial residual = 0.011486172, Final residual = 0.00040146301, No Iterations 3
smoothSolver:  Solving for Uz, Initial residual = 0.0011442225, Final residual = 4.0268369e-05, No Iterations 3
GAMG:  Solving for p, Initial residual = 0.022301958, Final residual = 0.00021485803, No Iterations 3
time step continuity errors : sum local = 4.5717518e-05, global = 7.4648151e-07, cumulative = -0.00071651098
ExecutionTime = 12.634613 s  ClockTime = 13 s

Time = 71s

smoothSolver:  Solving for Ux, Initial residual = 0.0014329689, Final residual = 4.9793057e-05, No Iterations 3
smoothSolver:  Solving for Uy, Initial residual = 0.011278995, Final residual = 0.00039446561, No Iterations 3
smoothSolver:  Solving for Uz, Initial residual = 0.0011342078, Final residual = 3.9941745e-05, No Iterations 3
GAMG:  Solving for p, Initial residual = 0.02204105, Final residual = 0.00013445992, No Iterations 4
time step continuity errors : sum local = 2.8722163e-05, global = 4.5819163e-07, cumulative = -0.00071605278
ExecutionTime = 12.804845 s  ClockTime = 13 s

Time = 72s

smoothSolver:  Solving for Ux, Initial residual = 0.0014261173, Final residual = 4.9619266e-05, No Iterations 3
smoothSolver:  Solving for Uy, Initial residual = 0.011102113, Final residual = 0.00038844042, No Iterations 3
smoothSolver:  Solving for Uz, Initial residual = 0.0011237457, Final residual = 3.9587979e-05, No Iterations 3
GAMG:  Solving for p, Initial residual = 0.021873809, Final residual = 0.00013255734, No Iterations 4
time step continuity errors : sum local = 2.8411723e-05, global = 4.2300919e-07, cumulative = -0.00071562978
ExecutionTime = 12.976661 s  ClockTime = 13 s

Time = 73s

smoothSolver:  Solving for Ux, Initial residual = 0.0014192626, Final residual = 4.9460049e-05, No Iterations 3
smoothSolver:  Solving for Uy, Initial residual = 0.010932377, Final residual = 0.00038268676, No Iterations 3
smoothSolver:  Solving for Uz, Initial residual = 0.0011134322, Final residual = 3.9247512e-05, No Iterations 3
GAMG:  Solving for p, Initial residual = 0.021743557, Final residual = 0.00012645834, No Iterations 4
time step continuity errors : sum local = 2.7193819e-05, global = 3.6008653e-07, cumulative = -0.00071526969
ExecutionTime = 13.146971 s  ClockTime = 14 s

Time = 74s

smoothSolver:  Solving for Ux, Initial residual = 0.0014122223, Final residual = 4.9308014e-05, No Iterations 3
smoothSolver:  Solving for Uy, Initial residual = 0.010757765, Final residual = 0.0003766609, No Iterations 3
smoothSolver:  Solving for Uz, Initial residual = 0.0011032445, Final residual = 3.8917767e-05, No Iterations 3
GAMG:  Solving for p, Initial residual = 0.021648967, Final residual = 0.0002142582, No Iterations 3
time step continuity errors : sum local = 4.6226877e-05, global = 5.1711184e-07, cumulative = -0.00071475258
ExecutionTime = 13.308402 s  ClockTime = 14 s

Time = 75s

smoothSolver:  Solving for Ux, Initial residual = 0.001403617, Final residual = 4.9096983e-05, No Iterations 3
smoothSolver:  Solving for Uy, Initial residual = 0.01057038, Final residual = 0.0003701186, No Iterations 3
smoothSolver:  Solving for Uz, Initial residual = 0.0010935009, Final residual = 3.8614701e-05, No Iterations 3
GAMG:  Solving for p, Initial residual = 0.021447126, Final residual = 0.00012809747, No Iterations 4
time step continuity errors : sum local = 2.7736924e-05, global = 2.7960784e-07, cumulative = -0.00071447297
ExecutionTime = 13.479418 s  ClockTime = 14 s

Time = 76s

smoothSolver:  Solving for Ux, Initial residual = 0.0013974361, Final residual = 4.8958202e-05, No Iterations 3
smoothSolver:  Solving for Uy, Initial residual = 0.010389745, Final residual = 0.0003635552, No Iterations 3
smoothSolver:  Solving for Uz, Initial residual = 0.0010830657, Final residual = 3.8273189e-05, No Iterations 3
GAMG:  Solving for p, Initial residual = 0.021279175, Final residual = 0.00012242347, No Iterations 4
time step continuity errors : sum local = 2.6591266e-05, global = 2.7059838e-07, cumulative = -0.00071420237
ExecutionTime = 13.650539 s  ClockTime = 14 s

Time = 77s

smoothSolver:  Solving for Ux, Initial residual = 0.0013907988, Final residual = 4.8797477e-05, No Iterations 3
smoothSolver:  Solving for Uy, Initial residual = 0.010220436, Final residual = 0.00035736304, No Iterations 3
smoothSolver:  Solving for Uz, Initial residual = 0.0010729419, Final residual = 3.7940521e-05, No Iterations 3
GAMG:  Solving for p, Initial residual = 0.02115348, Final residual = 0.00020803465, No Iterations 3
time step continuity errors : sum local = 4.5332267e-05, global = 4.8129263e-07, cumulative = -0.00071372108
ExecutionTime = 13.811895 s  ClockTime = 14 s

Time = 78s

smoothSolver:  Solving for Ux, Initial residual = 0.0013823693, Final residual = 4.8571997e-05, No Iterations 3
smoothSolver:  Solving for Uy, Initial residual = 0.010058706, Final residual = 0.00035135509, No Iterations 3
smoothSolver:  Solving for Uz, Initial residual = 0.0010635555, Final residual = 3.7639917e-05, No Iterations 3
GAMG:  Solving for p, Initial residual = 0.020989666, Final residual = 0.0001216279, No Iterations 4
time step continuity errors : sum local = 2.6597909e-05, global = 3.2268686e-07, cumulative = -0.00071339839
ExecutionTime = 13.98461 s  ClockTime = 14 s

Time = 79s

smoothSolver:  Solving for Ux, Initial residual = 0.0013757935, Final residual = 4.8398669e-05, No Iterations 3
smoothSolver:  Solving for Uy, Initial residual = 0.0099127979, Final residual = 0.00034582946, No Iterations 3
smoothSolver:  Solving for Uz, Initial residual = 0.0010539442, Final residual = 3.7319854e-05, No Iterations 3
GAMG:  Solving for p, Initial residual = 0.020853996, Final residual = 0.00011705179, No Iterations 4
time step continuity errors : sum local = 2.5681023e-05, global = 3.5052372e-07, cumulative = -0.00071304787
ExecutionTime = 14.155601 s  ClockTime = 15 s

Time = 80s

smoothSolver:  Solving for Ux, Initial residual = 0.0013686261, Final residual = 4.8194238e-05, No Iterations 3
smoothSolver:  Solving for Uy, Initial residual = 0.009771816, Final residual = 0.00034055151, No Iterations 3
smoothSolver:  Solving for Uz, Initial residual = 0.0010446424, Final residual = 3.7010836e-05, No Iterations 3
GAMG:  Solving for p, Initial residual = 0.020768096, Final residual = 0.00019745647, No Iterations 3
time step continuity errors : sum local = 4.3461997e-05, global = 6.2579237e-07, cumulative = -0.00071242208
ExecutionTime = 14.317223 s  ClockTime = 15 s

Time = 81s

smoothSolver:  Solving for Ux, Initial residual = 0.0013600269, Final residual = 4.7913134e-05, No Iterations 3
smoothSolver:  Solving for Uy, Initial residual = 0.0096311838, Final residual = 0.00033526738, No Iterations 3
smoothSolver:  Solving for Uz, Initial residual = 0.0010358046, Final residual = 3.6721753e-05, No Iterations 3
GAMG:  Solving for p, Initial residual = 0.020669504, Final residual = 0.0001172059, No Iterations 4
time step continuity errors : sum local = 2.5885642e-05, global = 3.8496913e-07, cumulative = -0.00071203711
ExecutionTime = 14.48786 s  ClockTime = 15 s

Time = 82s

smoothSolver:  Solving for Ux, Initial residual = 0.001353239, Final residual = 4.7689457e-05, No Iterations 3
smoothSolver:  Solving for Uy, Initial residual = 0.0094994527, Final residual = 0.00033012929, No Iterations 3
smoothSolver:  Solving for Uz, Initial residual = 0.0010265229, Final residual = 3.6404551e-05, No Iterations 3
GAMG:  Solving for p, Initial residual = 0.020574547, Final residual = 0.00020364545, No Iterations 3
time step continuity errors : sum local = 4.5110973e-05, global = 6.5529665e-07, cumulative = -0.00071138181
ExecutionTime = 14.648592 s  ClockTime = 15 s

Time = 83s

smoothSolver:  Solving for Ux, Initial residual = 0.001345203, Final residual = 4.743358e-05, No Iterations 3
smoothSolver:  Solving for Uy, Initial residual = 0.0093645659, Final residual = 0.00032486673, No Iterations 3
smoothSolver:  Solving for Uz, Initial residual = 0.0010174953, Final residual = 3.6100301e-05, No Iterations 3
GAMG:  Solving for p, Initial residual = 0.02036096, Final residual = 0.00012207894, No Iterations 4
time step continuity errors : sum local = 2.7126626e-05, global = 3.5677272e-07, cumulative = -0.00071102504
ExecutionTime = 14.818039 s  ClockTime = 15 s

Time = 84s

smoothSolver:  Solving for Ux, Initial residual = 0.0013387257, Final residual = 4.7229559e-05, No Iterations 3
smoothSolver:  Solving for Uy, Initial residual = 0.0092402467, Final residual = 0.0003202144, No Iterations 3
smoothSolver:  Solving for Uz, Initial residual = 0.0010081041, Final residual = 3.5778338e-05, No Iterations 3
GAMG:  Solving for p, Initial residual = 0.020212055, Final residual = 0.0001153799, No Iterations 4
time step continuity errors : sum local = 2.5708284e-05, global = 3.052417e-07, cumulative = -0.0007107198
ExecutionTime = 14.99131 s  ClockTime = 15 s

Time = 85s

smoothSolver:  Solving for Ux, Initial residual = 0.0013319547, Final residual = 4.7001943e-05, No Iterations 3
smoothSolver:  Solving for Uy, Initial residual = 0.0091328794, Final residual = 0.00031631519, No Iterations 3
smoothSolver:  Solving for Uz, Initial residual = 0.0009991808, Final residual = 3.5476057e-05, No Iterations 3
GAMG:  Solving for p, Initial residual = 0.020066307, Final residual = 0.00019363165, No Iterations 3
time step continuity errors : sum local = 4.3264284e-05, global = 4.3585537e-07, cumulative = -0.00071028394
ExecutionTime = 15.154674 s  ClockTime = 16 s

Time = 86s

smoothSolver:  Solving for Ux, Initial residual = 0.0013238374, Final residual = 4.672257e-05, No Iterations 3
smoothSolver:  Solving for Uy, Initial residual = 0.009038197, Final residual = 0.00031287959, No Iterations 3
smoothSolver:  Solving for Uz, Initial residual = 0.00099092239, Final residual = 3.5205337e-05, No Iterations 3
GAMG:  Solving for p, Initial residual = 0.019966584, Final residual = 0.00011001401, No Iterations 4
time step continuity errors : sum local = 2.4658988e-05, global = 2.2348322e-07, cumulative = -0.00071006046
ExecutionTime = 15.32536 s  ClockTime = 16 s

Time = 87s

smoothSolver:  Solving for Ux, Initial residual = 0.0013180206, Final residual = 4.6524265e-05, No Iterations 3
smoothSolver:  Solving for Uy, Initial residual = 0.0089743048, Final residual = 0.00031037616, No Iterations 3
smoothSolver:  Solving for Uz, Initial residual = 0.00098283159, Final residual = 3.4938264e-05, No Iterations 3
GAMG:  Solving for p, Initial residual = 0.019958097, Final residual = 0.0001968472, No Iterations 3
time step continuity errors : sum local = 4.4253793e-05, global = 3.7640992e-07, cumulative = -0.00070968405
ExecutionTime = 15.487154 s  ClockTime = 16 s

Time = 88s

smoothSolver:  Solving for Ux, Initial residual = 0.001310738, Final residual = 4.6281607e-05, No Iterations 3
smoothSolver:  Solving for Uy, Initial residual = 0.008902273, Final residual = 0.00030769725, No Iterations 3
smoothSolver:  Solving for Uz, Initial residual = 0.00097500752, Final residual = 3.4687082e-05, No Iterations 3
GAMG:  Solving for p, Initial residual = 0.019872611, Final residual = 0.00011077632, No Iterations 4
time step continuity errors : sum local = 2.4983366e-05, global = 2.4182596e-07, cumulative = -0.00070944222
ExecutionTime = 15.658479 s  ClockTime = 16 s

Time = 89s

smoothSolver:  Solving for Ux, Initial residual = 0.0013054337, Final residual = 4.6129362e-05, No Iterations 3
smoothSolver:  Solving for Uy, Initial residual = 0.0088436223, Final residual = 0.00030535788, No Iterations 3
smoothSolver:  Solving for Uz, Initial residual = 0.00096710331, Final residual = 3.4431945e-05, No Iterations 3
GAMG:  Solving for p, Initial residual = 0.019788804, Final residual = 0.00019689333, No Iterations 3
time step continuity errors : sum local = 4.4543336e-05, global = 4.3966309e-07, cumulative = -0.00070900256
ExecutionTime = 15.819781 s  ClockTime = 16 s

Time = 90s

smoothSolver:  Solving for Ux, Initial residual = 0.0012980373, Final residual = 4.5906036e-05, No Iterations 3
smoothSolver:  Solving for Uy, Initial residual = 0.0087572433, Final residual = 0.00030212544, No Iterations 3
smoothSolver:  Solving for Uz, Initial residual = 0.00095892535, Final residual = 3.417509e-05, No Iterations 3
GAMG:  Solving for p, Initial residual = 0.019628732, Final residual = 0.0001113211, No Iterations 4
time step continuity errors : sum local = 2.5262756e-05, global = 3.0145742e-07, cumulative = -0.0007087011
ExecutionTime = 15.993144 s  ClockTime = 16 s

Time = 91s

smoothSolver:  Solving for Ux, Initial residual = 0.0012916325, Final residual = 4.5741918e-05, No Iterations 3
smoothSolver:  Solving for Uy, Initial residual = 0.0086610261, Final residual = 0.00029868857, No Iterations 3
smoothSolver:  Solving for Uz, Initial residual = 0.00095028431, Final residual = 3.3892845e-05, No Iterations 3
GAMG:  Solving for p, Initial residual = 0.019402575, Final residual = 0.00010815456, No Iterations 4
time step continuity errors : sum local = 2.4609207e-05, global = 3.1398444e-07, cumulative = -0.00070838712
ExecutionTime = 16.165757 s  ClockTime = 17 s

Time = 92s

smoothSolver:  Solving for Ux, Initial residual = 0.001283766, Final residual = 4.5547052e-05, No Iterations 3
smoothSolver:  Solving for Uy, Initial residual = 0.0085454512, Final residual = 0.00029456299, No Iterations 3
smoothSolver:  Solving for Uz, Initial residual = 0.00094131228, Final residual = 3.3601605e-05, No Iterations 3
GAMG:  Solving for p, Initial residual = 0.01925042, Final residual = 0.00018973185, No Iterations 3
time step continuity errors : sum local = 4.3279496e-05, global = 5.1358271e-07, cumulative = -0.00070787353
ExecutionTime = 16.328238 s  ClockTime = 17 s

Time = 93s

smoothSolver:  Solving for Ux, Initial residual = 0.0012745728, Final residual = 4.5301921e-05, No Iterations 3
smoothSolver:  Solving for Uy, Initial residual = 0.0084228529, Final residual = 0.00029006946, No Iterations 3
smoothSolver:  Solving for Uz, Initial residual = 0.00093259683, Final residual = 3.3328798e-05, No Iterations 3
GAMG:  Solving for p, Initial residual = 0.019118763, Final residual = 0.00011076561, No Iterations 4
time step continuity errors : sum local = 2.5336168e-05, global = 2.854472e-07, cumulative = -0.00070758809
ExecutionTime = 16.498279 s  ClockTime = 17 s

Time = 94s

smoothSolver:  Solving for Ux, Initial residual = 0.001266407, Final residual = 4.509882e-05, No Iterations 3
smoothSolver:  Solving for Uy, Initial residual = 0.0083272316, Final residual = 0.00028653181, No Iterations 3
smoothSolver:  Solving for Uz, Initial residual = 0.00092377427, Final residual = 3.3043538e-05, No Iterations 3
GAMG:  Solving for p, Initial residual = 0.019066965, Final residual = 0.00010566739, No Iterations 4
time step continuity errors : sum local = 2.4228916e-05, global = 2.5918349e-07, cumulative = -0.0007073289
ExecutionTime = 16.669398 s  ClockTime = 17 s

Time = 95s

smoothSolver:  Solving for Ux, Initial residual = 0.0012589399, Final residual = 4.4915878e-05, No Iterations 3
smoothSolver:  Solving for Uy, Initial residual = 0.0082621476, Final residual = 0.00028416234, No Iterations 3
smoothSolver:  Solving for Uz, Initial residual = 0.00091575471, Final residual = 3.2787361e-05, No Iterations 3
GAMG:  Solving for p, Initial residual = 0.018938999, Final residual = 0.00018541313, No Iterations 3
time step continuity errors : sum local = 4.2621913e-05, global = 3.8117254e-07, cumulative = -0.00070694773
ExecutionTime = 16.831558 s  ClockTime = 17 s

Time = 96s

smoothSolver:  Solving for Ux, Initial residual = 0.0012513705, Final residual = 4.4716032e-05, No Iterations 3
smoothSolver:  Solving for Uy, Initial residual = 0.0082092648, Final residual = 0.00028229001, No Iterations 3
smoothSolver:  Solving for Uz, Initial residual = 0.00090836884, Final residual = 3.2558358e-05, No Iterations 3
GAMG:  Solving for p, Initial residual = 0.018760614, Final residual = 0.00010410003, No Iterations 4
time step continuity errors : sum local = 2.3998584e-05, global = 2.2197946e-07, cumulative = -0.00070672575
ExecutionTime = 17.00034 s  ClockTime = 18 s

Time = 97s

smoothSolver:  Solving for Ux, Initial residual = 0.0012457611, Final residual = 4.4584905e-05, No Iterations 3
smoothSolver:  Solving for Uy, Initial residual = 0.0081768556, Final residual = 0.00028137981, No Iterations 3
smoothSolver:  Solving for Uz, Initial residual = 0.00090123046, Final residual = 3.232978e-05, No Iterations 3
GAMG:  Solving for p, Initial residual = 0.018637077, Final residual = 9.9577348e-05, No Iterations 4
time step continuity errors : sum local = 2.301645e-05, global = 2.1196852e-07, cumulative = -0.00070651378
ExecutionTime = 17.170634 s  ClockTime = 18 s

Time = 98s

smoothSolver:  Solving for Ux, Initial residual = 0.0012397379, Final residual = 4.444392e-05, No Iterations 3
smoothSolver:  Solving for Uy, Initial residual = 0.0081324831, Final residual = 0.00028011096, No Iterations 3
smoothSolver:  Solving for Uz, Initial residual = 0.00089404054, Final residual = 3.2102418e-05, No Iterations 3
GAMG:  Solving for p, Initial residual = 0.018534575, Final residual = 0.00017990078, No Iterations 3
time step continuity errors : sum local = 4.1695594e-05, global = 3.4102635e-07, cumulative = -0.00070617276
ExecutionTime = 17.332272 s  ClockTime = 18 s

Time = 99s

smoothSolver:  Solving for Ux, Initial residual = 0.0012322337, Final residual = 4.4232476e-05, No Iterations 3
smoothSolver:  Solving for Uy, Initial residual = 0.0080645996, Final residual = 0.00027784639, No Iterations 3
smoothSolver:  Solving for Uz, Initial residual = 0.00088674394, Final residual = 3.1875914e-05, No Iterations 3
GAMG:  Solving for p, Initial residual = 0.018416755, Final residual = 0.00010273266, No Iterations 4
time step continuity errors : sum local = 2.3879434e-05, global = 2.246296e-07, cumulative = -0.00070594813
ExecutionTime = 17.507957 s  ClockTime = 18 s

Time = 100s

smoothSolver:  Solving for Ux, Initial residual = 0.0012257515, Final residual = 4.4052004e-05, No Iterations 3
smoothSolver:  Solving for Uy, Initial residual = 0.0080019409, Final residual = 0.00027559918, No Iterations 3
smoothSolver:  Solving for Uz, Initial residual = 0.00087915161, Final residual = 3.1625949e-05, No Iterations 3
GAMG:  Solving for p, Initial residual = 0.018353684, Final residual = 0.00010215221, No Iterations 4
time step continuity errors : sum local = 2.380774e-05, global = 2.2303891e-07, cumulative = -0.00070572509
ExecutionTime = 17.681043 s  ClockTime = 18 s

Time = 101s

smoothSolver:  Solving for Ux, Initial residual = 0.001218806, Final residual = 4.3861057e-05, No Iterations 3
smoothSolver:  Solving for Uy, Initial residual = 0.0079342754, Final residual = 0.00027309557, No Iterations 3
smoothSolver:  Solving for Uz, Initial residual = 0.00087158277, Final residual = 3.137569e-05, No Iterations 3
GAMG:  Solving for p, Initial residual = 0.018286271, Final residual = 9.9497412e-05, No Iterations 4
time step continuity errors : sum local = 2.3248701e-05, global = 2.1766283e-07, cumulative = -0.00070550742
ExecutionTime = 17.853021 s  ClockTime = 18 s

Time = 102s

smoothSolver:  Solving for Ux, Initial residual = 0.0012115593, Final residual = 4.3643293e-05, No Iterations 3
smoothSolver:  Solving for Uy, Initial residual = 0.0078704028, Final residual = 0.00027060817, No Iterations 3
smoothSolver:  Solving for Uz, Initial residual = 0.00086423765, Final residual = 3.1130899e-05, No Iterations 3
GAMG:  Solving for p, Initial residual = 0.018136837, Final residual = 0.00018046949, No Iterations 3
time step continuity errors : sum local = 4.2273274e-05, global = 3.6359733e-07, cumulative = -0.00070514383
ExecutionTime = 18.014276 s  ClockTime = 19 s

Time = 103s

smoothSolver:  Solving for Ux, Initial residual = 0.0012040111, Final residual = 4.3391434e-05, No Iterations 3
smoothSolver:  Solving for Uy, Initial residual = 0.0078043855, Final residual = 0.00026819663, No Iterations 3
smoothSolver:  Solving for Uz, Initial residual = 0.00085731721, Final residual = 3.0909413e-05, No Iterations 3
GAMG:  Solving for p, Initial residual = 0.017915261, Final residual = 0.00010514074, No Iterations 4
time step continuity errors : sum local = 2.4694433e-05, global = 2.113884e-07, cumulative = -0.00070493244
ExecutionTime = 18.185468 s  ClockTime = 19 s

Time = 104s

smoothSolver:  Solving for Ux, Initial residual = 0.0011972131, Final residual = 4.3179342e-05, No Iterations 3
smoothSolver:  Solving for Uy, Initial residual = 0.007754062, Final residual = 0.00026654413, No Iterations 3
smoothSolver:  Solving for Uz, Initial residual = 0.00085013821, Final residual = 3.0669087e-05, No Iterations 3
GAMG:  Solving for p, Initial residual = 0.017742784, Final residual = 0.00010157364, No Iterations 4
time step continuity errors : sum local = 2.3911428e-05, global = 2.0918171e-07, cumulative = -0.00070472326
ExecutionTime = 18.356596 s  ClockTime = 19 s

Time = 105s

smoothSolver:  Solving for Ux, Initial residual = 0.0011904755, Final residual = 4.2963538e-05, No Iterations 3
smoothSolver:  Solving for Uy, Initial residual = 0.0076979922, Final residual = 0.00026482551, No Iterations 3
smoothSolver:  Solving for Uz, Initial residual = 0.00084296155, Final residual = 3.0424781e-05, No Iterations 3
GAMG:  Solving for p, Initial residual = 0.017623814, Final residual = 0.00017303195, No Iterations 3
time step continuity errors : sum local = 4.082665e-05, global = 3.5378873e-07, cumulative = -0.00070436947
ExecutionTime = 18.517128 s  ClockTime = 19 s

Time = 106s

smoothSolver:  Solving for Ux, Initial residual = 0.0011831987, Final residual = 4.2721883e-05, No Iterations 3
smoothSolver:  Solving for Uy, Initial residual = 0.0076305031, Final residual = 0.00026272098, No Iterations 3
smoothSolver:  Solving for Uz, Initial residual = 0.00083599175, Final residual = 3.0189485e-05, No Iterations 3
GAMG:  Solving for p, Initial residual = 0.017473124, Final residual = 9.7905367e-05, No Iterations 4
time step continuity errors : sum local = 2.3160755e-05, global = 2.2465093e-07, cumulative = -0.00070414482
ExecutionTime = 18.689978 s  ClockTime = 19 s

Time = 107s

smoothSolver:  Solving for Ux, Initial residual = 0.0011769199, Final residual = 4.2498339e-05, No Iterations 3
smoothSolver:  Solving for Uy, Initial residual = 0.007582689, Final residual = 0.00026123254, No Iterations 3
smoothSolver:  Solving for Uz, Initial residual = 0.00082894195, Final residual = 2.9940448e-05, No Iterations 3
GAMG:  Solving for p, Initial residual = 0.017420316, Final residual = 0.00017346103, No Iterations 3
time step continuity errors : sum local = 4.1126535e-05, global = 3.8545923e-07, cumulative = -0.00070375936
ExecutionTime = 18.850685 s  ClockTime = 19 s

Time = 108s

smoothSolver:  Solving for Ux, Initial residual = 0.0011702683, Final residual = 4.2250787e-05, No Iterations 3
smoothSolver:  Solving for Uy, Initial residual = 0.007531136, Final residual = 0.0002597407, No Iterations 3
smoothSolver:  Solving for Uz, Initial residual = 0.00082228334, Final residual = 2.9710057e-05, No Iterations 3
GAMG:  Solving for p, Initial residual = 0.017312408, Final residual = 9.9363373e-05, No Iterations 4
time step continuity errors : sum local = 2.3617883e-05, global = 2.496541e-07, cumulative = -0.0007035097
ExecutionTime = 19.021512 s  ClockTime = 20 s

Time = 109s

smoothSolver:  Solving for Ux, Initial residual = 0.0011646569, Final residual = 4.204715e-05, No Iterations 3
smoothSolver:  Solving for Uy, Initial residual = 0.0075043117, Final residual = 0.00025913318, No Iterations 3
smoothSolver:  Solving for Uz, Initial residual = 0.00081584586, Final residual = 2.9479423e-05, No Iterations 3
GAMG:  Solving for p, Initial residual = 0.017280811, Final residual = 9.6178951e-05, No Iterations 4
time step continuity errors : sum local = 2.2912315e-05, global = 2.5055178e-07, cumulative = -0.00070325915
ExecutionTime = 19.192545 s  ClockTime = 20 s

Time = 110s

smoothSolver:  Solving for Ux, Initial residual = 0.001158793, Final residual = 4.1841443e-05, No Iterations 3
smoothSolver:  Solving for Uy, Initial residual = 0.0074724772, Final residual = 0.00025832419, No Iterations 3
smoothSolver:  Solving for Uz, Initial residual = 0.00080969283, Final residual = 2.9257049e-05, No Iterations 3
GAMG:  Solving for p, Initial residual = 0.017181487, Final residual = 0.00016976947, No Iterations 3
time step continuity errors : sum local = 4.0534193e-05, global = 3.9065369e-07, cumulative = -0.0007028685
ExecutionTime = 19.356061 s  ClockTime = 20 s

Time = 111s

smoothSolver:  Solving for Ux, Initial residual = 0.0011519892, Final residual = 4.1600054e-05, No Iterations 3
smoothSolver:  Solving for Uy, Initial residual = 0.0074181598, Final residual = 0.00025667723, No Iterations 3
smoothSolver:  Solving for Uz, Initial residual = 0.00080361042, Final residual = 2.9041107e-05, No Iterations 3
GAMG:  Solving for p, Initial residual = 0.017029916, Final residual = 0.00010041722, No Iterations 4
time step continuity errors : sum local = 2.4035227e-05, global = 2.05799e-07, cumulative = -0.0007026627
ExecutionTime = 19.527166 s  ClockTime = 20 s

Time = 112s

smoothSolver:  Solving for Ux, Initial residual = 0.0011455537, Final residual = 4.1369004e-05, No Iterations 3
smoothSolver:  Solving for Uy, Initial residual = 0.007370838, Final residual = 0.00025519264, No Iterations 3
smoothSolver:  Solving for Uz, Initial residual = 0.00079709294, Final residual = 2.8801817e-05, No Iterations 3
GAMG:  Solving for p, Initial residual = 0.016936591, Final residual = 9.7093848e-05, No Iterations 4
time step continuity errors : sum local = 2.3288141e-05, global = 1.8091127e-07, cumulative = -0.00070248179
ExecutionTime = 19.698878 s  ClockTime = 20 s

Time = 113s

smoothSolver:  Solving for Ux, Initial residual = 0.001139044, Final residual = 4.1134034e-05, No Iterations 3
smoothSolver:  Solving for Uy, Initial residual = 0.0073170677, Final residual = 0.00025350363, No Iterations 3
smoothSolver:  Solving for Uz, Initial residual = 0.00079059378, Final residual = 2.8565399e-05, No Iterations 3
GAMG:  Solving for p, Initial residual = 0.016859169, Final residual = 0.00016578548, No Iterations 3
time step continuity errors : sum local = 3.9847795e-05, global = 2.9184761e-07, cumulative = -0.00070218994
ExecutionTime = 19.85846 s  ClockTime = 20 s

Time = 114s

smoothSolver:  Solving for Ux, Initial residual = 0.0011328999, Final residual = 4.0894221e-05, No Iterations 3
smoothSolver:  Solving for Uy, Initial residual = 0.0072564052, Final residual = 0.00025158796, No Iterations 3
smoothSolver:  Solving for Uz, Initial residual = 0.00078439039, Final residual = 2.8346588e-05, No Iterations 3
GAMG:  Solving for p, Initial residual = 0.016661412, Final residual = 0.00010028853, No Iterations 4
time step continuity errors : sum local = 2.4161014e-05, global = 1.5349799e-07, cumulative = -0.00070203644
ExecutionTime = 20.027341 s  ClockTime = 21 s

Time = 115s

smoothSolver:  Solving for Ux, Initial residual = 0.0011270928, Final residual = 4.0673568e-05, No Iterations 3
smoothSolver:  Solving for Uy, Initial residual = 0.0072126129, Final residual = 0.00025033655, No Iterations 3
smoothSolver:  Solving for Uz, Initial residual = 0.00077815191, Final residual = 2.8115354e-05, No Iterations 3
GAMG:  Solving for p, Initial residual = 0.016487995, Final residual = 9.6643096e-05, No Iterations 4
time step continuity errors : sum local = 2.3326546e-05, global = 1.5318968e-07, cumulative = -0.00070188325
ExecutionTime = 20.197217 s  ClockTime = 21 s

Time = 116s

smoothSolver:  Solving for Ux, Initial residual = 0.0011211929, Final residual = 4.0448157e-05, No Iterations 3
smoothSolver:  Solving for Uy, Initial residual = 0.007166507, Final residual = 0.00024900949, No Iterations 3
smoothSolver:  Solving for Uz, Initial residual = 0.00077196006, Final residual = 2.7886906e-05, No Iterations 3
GAMG:  Solving for p, Initial residual = 0.016312907, Final residual = 8.8923242e-05, No Iterations 4
time step continuity errors : sum local = 2.1504379e-05, global = 1.5533907e-07, cumulative = -0.00070172791
ExecutionTime = 20.368774 s  ClockTime = 21 s

Time = 117s

smoothSolver:  Solving for Ux, Initial residual = 0.0011153004, Final residual = 4.020449e-05, No Iterations 3
smoothSolver:  Solving for Uy, Initial residual = 0.0071136435, Final residual = 0.0002473789, No Iterations 3
smoothSolver:  Solving for Uz, Initial residual = 0.00076588452, Final residual = 2.7666732e-05, No Iterations 3
GAMG:  Solving for p, Initial residual = 0.016174662, Final residual = 0.00015671519, No Iterations 3
time step continuity errors : sum local = 3.7976415e-05, global = 2.6686722e-07, cumulative = -0.00070146105
ExecutionTime = 20.528822 s  ClockTime = 21 s

Time = 118s

smoothSolver:  Solving for Ux, Initial residual = 0.0011092699, Final residual = 3.9949035e-05, No Iterations 3
smoothSolver:  Solving for Uy, Initial residual = 0.0070558474, Final residual = 0.00024549001, No Iterations 3
smoothSolver:  Solving for Uz, Initial residual = 0.00076006239, Final residual = 2.7464171e-05, No Iterations 3
GAMG:  Solving for p, Initial residual = 0.016002733, Final residual = 8.8881743e-05, No Iterations 4
time step continuity errors : sum local = 2.1586882e-05, global = 1.8983037e-07, cumulative = -0.00070127122
ExecutionTime = 20.699703 s  ClockTime = 21 s

Time = 119s

smoothSolver:  Solving for Ux, Initial residual = 0.0011042209, Final residual = 3.972771e-05, No Iterations 3
smoothSolver:  Solving for Uy, Initial residual = 0.0070247139, Final residual = 0.00024465406, No Iterations 3
smoothSolver:  Solving for Uz, Initial residual = 0.00075447261, Final residual = 2.7263883e-05, No Iterations 3
GAMG:  Solving for p, Initial residual = 0.015863281, Final residual = 8.8245842e-05, No Iterations 4
time step continuity errors : sum local = 2.147551e-05, global = 2.0211215e-07, cumulative = -0.0007010691
ExecutionTime = 20.870883 s  ClockTime = 21 s

Time = 120s

smoothSolver:  Solving for Ux, Initial residual = 0.0010993564, Final residual = 3.950146e-05, No Iterations 3
smoothSolver:  Solving for Uy, Initial residual = 0.0069974667, Final residual = 0.00024403385, No Iterations 3
smoothSolver:  Solving for Uz, Initial residual = 0.0007491904, Final residual = 2.7076557e-05, No Iterations 3
GAMG:  Solving for p, Initial residual = 0.015724848, Final residual = 8.6449195e-05, No Iterations 4
time step continuity errors : sum local = 2.1080888e-05, global = 2.0369346e-07, cumulative = -0.00070086541
ExecutionTime = 21.042065 s  ClockTime = 22 s

Time = 121s

smoothSolver:  Solving for Ux, Initial residual = 0.0010944207, Final residual = 3.9273916e-05, No Iterations 3
smoothSolver:  Solving for Uy, Initial residual = 0.0069710303, Final residual = 0.00024342261, No Iterations 3
smoothSolver:  Solving for Uz, Initial residual = 0.00074409341, Final residual = 2.6896819e-05, No Iterations 3
GAMG:  Solving for p, Initial residual = 0.015701273, Final residual = 8.4565891e-05, No Iterations 4
time step continuity errors : sum local = 2.0664147e-05, global = 1.9852539e-07, cumulative = -0.00070066688
ExecutionTime = 21.212971 s  ClockTime = 22 s

Time = 122s

smoothSolver:  Solving for Ux, Initial residual = 0.0010895407, Final residual = 3.9051539e-05, No Iterations 3
smoothSolver:  Solving for Uy, Initial residual = 0.006946743, Final residual = 0.00024278966, No Iterations 3
smoothSolver:  Solving for Uz, Initial residual = 0.00073919567, Final residual = 2.6724609e-05, No Iterations 3
GAMG:  Solving for p, Initial residual = 0.015618611, Final residual = 8.3580767e-05, No Iterations 4
time step continuity errors : sum local = 2.04637e-05, global = 1.8791925e-07, cumulative = -0.00070047897
ExecutionTime = 21.385004 s  ClockTime = 22 s

Time = 123s

smoothSolver:  Solving for Ux, Initial residual = 0.0010847496, Final residual = 3.8830242e-05, No Iterations 3
smoothSolver:  Solving for Uy, Initial residual = 0.0069210586, Final residual = 0.00024202194, No Iterations 3
smoothSolver:  Solving for Uz, Initial residual = 0.00073436085, Final residual = 2.655294e-05, No Iterations 3
GAMG:  Solving for p, Initial residual = 0.015512498, Final residual = 8.4204407e-05, No Iterations 4
time step continuity errors : sum local = 2.0657267e-05, global = 1.7724333e-07, cumulative = -0.00070030172
ExecutionTime = 21.556268 s  ClockTime = 22 s

Time = 124s

smoothSolver:  Solving for Ux, Initial residual = 0.0010798779, Final residual = 3.8608408e-05, No Iterations 3
smoothSolver:  Solving for Uy, Initial residual = 0.0068918368, Final residual = 0.00024107548, No Iterations 3
smoothSolver:  Solving for Uz, Initial residual = 0.00072953615, Final residual = 2.6378578e-05, No Iterations 3
GAMG:  Solving for p, Initial residual = 0.015443971, Final residual = 8.4991295e-05, No Iterations 4
time step continuity errors : sum local = 2.0892172e-05, global = 1.7164865e-07, cumulative = -0.00070013007
ExecutionTime = 21.728358 s  ClockTime = 22 s

Time = 125s

smoothSolver:  Solving for Ux, Initial residual = 0.0010751479, Final residual = 3.8396621e-05, No Iterations 3
smoothSolver:  Solving for Uy, Initial residual = 0.0068629644, Final residual = 0.00024017251, No Iterations 3
smoothSolver:  Solving for Uz, Initial residual = 0.00072470187, Final residual = 2.6205489e-05, No Iterations 3
GAMG:  Solving for p, Initial residual = 0.015377278, Final residual = 8.5069975e-05, No Iterations 4
time step continuity errors : sum local = 2.0951298e-05, global = 1.703572e-07, cumulative = -0.00069995972
ExecutionTime = 21.89934 s  ClockTime = 22 s

Time = 126s

smoothSolver:  Solving for Ux, Initial residual = 0.0010706276, Final residual = 3.8177037e-05, No Iterations 3
smoothSolver:  Solving for Uy, Initial residual = 0.0068361581, Final residual = 0.00023921846, No Iterations 3
smoothSolver:  Solving for Uz, Initial residual = 0.00071988653, Final residual = 2.6032708e-05, No Iterations 3
GAMG:  Solving for p, Initial residual = 0.015336591, Final residual = 8.5982528e-05, No Iterations 4
time step continuity errors : sum local = 2.1216217e-05, global = 1.7039246e-07, cumulative = -0.00069978932
ExecutionTime = 22.069544 s  ClockTime = 23 s

Time = 127s

smoothSolver:  Solving for Ux, Initial residual = 0.0010662026, Final residual = 3.7957983e-05, No Iterations 3
smoothSolver:  Solving for Uy, Initial residual = 0.0068063316, Final residual = 0.00023821251, No Iterations 3
smoothSolver:  Solving for Uz, Initial residual = 0.00071506635, Final residual = 2.5858491e-05, No Iterations 3
GAMG:  Solving for p, Initial residual = 0.015243664, Final residual = 8.7214371e-05, No Iterations 4
time step continuity errors : sum local = 2.1558576e-05, global = 1.6616139e-07, cumulative = -0.00069962316
ExecutionTime = 22.238378 s  ClockTime = 23 s

Time = 128s

smoothSolver:  Solving for Ux, Initial residual = 0.0010618036, Final residual = 3.7750919e-05, No Iterations 3
smoothSolver:  Solving for Uy, Initial residual = 0.0067703588, Final residual = 0.00023687597, No Iterations 3
smoothSolver:  Solving for Uz, Initial residual = 0.0007102187, Final residual = 2.5684087e-05, No Iterations 3
GAMG:  Solving for p, Initial residual = 0.015127799, Final residual = 8.740498e-05, No Iterations 4
time step continuity errors : sum local = 2.1641858e-05, global = 1.6329583e-07, cumulative = -0.00069945987
ExecutionTime = 22.410103 s  ClockTime = 23 s

Time = 129s

smoothSolver:  Solving for Ux, Initial residual = 0.0010572546, Final residual = 3.7549589e-05, No Iterations 3
smoothSolver:  Solving for Uy, Initial residual = 0.0067289243, Final residual = 0.00023527549, No Iterations 3
smoothSolver:  Solving for Uz, Initial residual = 0.00070533775, Final residual = 2.5505716e-05, No Iterations 3
GAMG:  Solving for p, Initial residual = 0.015019114, Final residual = 8.6904487e-05, No Iterations 4
time step continuity errors : sum local = 2.1553479e-05, global = 1.5535035e-07, cumulative = -0.00069930452
ExecutionTime = 22.582232 s  ClockTime = 23 s

Time = 130s

smoothSolver:  Solving for Ux, Initial residual = 0.0010526902, Final residual = 3.736006e-05, No Iterations 3
smoothSolver:  Solving for Uy, Initial residual = 0.0066875731, Final residual = 0.00023366374, No Iterations 3
[...]
GAMG:  Solving for p, Initial residual = 1.2664439e-05, Final residual = 8.7571616e-08, No Iterations 3
time step continuity errors : sum local = 2.730824e-08, global = 4.0292929e-10, cumulative = -0.00072927047
ExecutionTime = 243.11623 s  ClockTime = 247 s

Time = 1479s

smoothSolver:  Solving for Ux, Initial residual = 7.1851186e-07, Final residual = 2.5952405e-08, No Iterations 3
smoothSolver:  Solving for Uy, Initial residual = 4.9565924e-06, Final residual = 1.8149713e-07, No Iterations 3
smoothSolver:  Solving for Uz, Initial residual = 2.6583066e-07, Final residual = 9.4295051e-09, No Iterations 3
GAMG:  Solving for p, Initial residual = 1.2570957e-05, Final residual = 8.7061399e-08, No Iterations 3
time step continuity errors : sum local = 2.7149133e-08, global = 3.772961e-10, cumulative = -0.00072927009
ExecutionTime = 243.27714 s  ClockTime = 247 s

Time = 1480s

smoothSolver:  Solving for Ux, Initial residual = 7.136251e-07, Final residual = 2.5796081e-08, No Iterations 3
smoothSolver:  Solving for Uy, Initial residual = 4.9181388e-06, Final residual = 1.8001427e-07, No Iterations 3
smoothSolver:  Solving for Uz, Initial residual = 2.6382656e-07, Final residual = 9.3507807e-09, No Iterations 3
GAMG:  Solving for p, Initial residual = 1.2475656e-05, Final residual = 8.6593748e-08, No Iterations 3
time step continuity errors : sum local = 2.7003301e-08, global = 3.5564205e-10, cumulative = -0.00072926973
ExecutionTime = 243.43848 s  ClockTime = 247 s

Time = 1481s

smoothSolver:  Solving for Ux, Initial residual = 7.0883918e-07, Final residual = 2.5633819e-08, No Iterations 3
smoothSolver:  Solving for Uy, Initial residual = 4.8804566e-06, Final residual = 1.7851904e-07, No Iterations 3
smoothSolver:  Solving for Uz, Initial residual = 2.6183134e-07, Final residual = 9.2730644e-09, No Iterations 3
GAMG:  Solving for p, Initial residual = 1.2381367e-05, Final residual = 8.6145366e-08, No Iterations 3
time step continuity errors : sum local = 2.6863477e-08, global = 3.3621412e-10, cumulative = -0.0007292694
ExecutionTime = 243.59852 s  ClockTime = 247 s

Time = 1482s

smoothSolver:  Solving for Ux, Initial residual = 7.0412001e-07, Final residual = 2.5470221e-08, No Iterations 3
smoothSolver:  Solving for Uy, Initial residual = 4.8431954e-06, Final residual = 1.7704978e-07, No Iterations 3
smoothSolver:  Solving for Uz, Initial residual = 2.598339e-07, Final residual = 9.1959473e-09, No Iterations 3
GAMG:  Solving for p, Initial residual = 1.2285057e-05, Final residual = 8.5701524e-08, No Iterations 3
time step continuity errors : sum local = 2.6725069e-08, global = 3.16728e-10, cumulative = -0.00072926908
ExecutionTime = 243.76164 s  ClockTime = 247 s

Time = 1483s

smoothSolver:  Solving for Ux, Initial residual = 6.9941815e-07, Final residual = 2.5304592e-08, No Iterations 3
smoothSolver:  Solving for Uy, Initial residual = 4.8059455e-06, Final residual = 1.755823e-07, No Iterations 3
smoothSolver:  Solving for Uz, Initial residual = 2.5786305e-07, Final residual = 9.1212344e-09, No Iterations 3
GAMG:  Solving for p, Initial residual = 1.2190478e-05, Final residual = 8.5248677e-08, No Iterations 3
time step continuity errors : sum local = 2.6583854e-08, global = 2.9526554e-10, cumulative = -0.00072926878
ExecutionTime = 243.92241 s  ClockTime = 248 s

Time = 1484s

smoothSolver:  Solving for Ux, Initial residual = 6.946717e-07, Final residual = 2.5131864e-08, No Iterations 3
smoothSolver:  Solving for Uy, Initial residual = 4.7693354e-06, Final residual = 1.7411026e-07, No Iterations 3
smoothSolver:  Solving for Uz, Initial residual = 2.5591737e-07, Final residual = 9.0478112e-09, No Iterations 3
GAMG:  Solving for p, Initial residual = 1.2098169e-05, Final residual = 8.4802787e-08, No Iterations 3
time step continuity errors : sum local = 2.6444807e-08, global = 2.7039103e-10, cumulative = -0.00072926851
ExecutionTime = 244.08623 s  ClockTime = 248 s

Time = 1485s

smoothSolver:  Solving for Ux, Initial residual = 6.8994441e-07, Final residual = 2.4950066e-08, No Iterations 3
smoothSolver:  Solving for Uy, Initial residual = 4.7329845e-06, Final residual = 1.7265623e-07, No Iterations 3
smoothSolver:  Solving for Uz, Initial residual = 2.540089e-07, Final residual = 8.974935e-09, No Iterations 3
GAMG:  Solving for p, Initial residual = 1.2005303e-05, Final residual = 8.43623e-08, No Iterations 3
time step continuity errors : sum local = 2.6307445e-08, global = 2.4028374e-10, cumulative = -0.00072926827
ExecutionTime = 244.24567 s  ClockTime = 248 s

Time = 1486s

smoothSolver:  Solving for Ux, Initial residual = 6.8533425e-07, Final residual = 2.477106e-08, No Iterations 3
smoothSolver:  Solving for Uy, Initial residual = 4.6967378e-06, Final residual = 1.7122561e-07, No Iterations 3
smoothSolver:  Solving for Uz, Initial residual = 2.5211392e-07, Final residual = 8.902668e-09, No Iterations 3
GAMG:  Solving for p, Initial residual = 1.1911366e-05, Final residual = 8.3891908e-08, No Iterations 3
time step continuity errors : sum local = 2.6160758e-08, global = 2.0406131e-10, cumulative = -0.00072926807
ExecutionTime = 244.40687 s  ClockTime = 248 s

Time = 1487s

smoothSolver:  Solving for Ux, Initial residual = 6.8067713e-07, Final residual = 2.4593764e-08, No Iterations 3
smoothSolver:  Solving for Uy, Initial residual = 4.661403e-06, Final residual = 1.698305e-07, No Iterations 3
smoothSolver:  Solving for Uz, Initial residual = 2.5024529e-07, Final residual = 8.8311952e-09, No Iterations 3
GAMG:  Solving for p, Initial residual = 1.1817535e-05, Final residual = 8.3378884e-08, No Iterations 3
time step continuity errors : sum local = 2.6000776e-08, global = 1.6124301e-10, cumulative = -0.00072926791
ExecutionTime = 244.56649 s  ClockTime = 248 s

Time = 1488s

smoothSolver:  Solving for Ux, Initial residual = 6.7606753e-07, Final residual = 2.4415664e-08, No Iterations 3
smoothSolver:  Solving for Uy, Initial residual = 4.626426e-06, Final residual = 1.684635e-07, No Iterations 3
smoothSolver:  Solving for Uz, Initial residual = 2.483916e-07, Final residual = 8.7625068e-09, No Iterations 3
GAMG:  Solving for p, Initial residual = 1.1726589e-05, Final residual = 8.2835765e-08, No Iterations 3
time step continuity errors : sum local = 2.583141e-08, global = 1.1123364e-10, cumulative = -0.0007292678
ExecutionTime = 244.72737 s  ClockTime = 248 s

Time = 1489s

smoothSolver:  Solving for Ux, Initial residual = 6.7148401e-07, Final residual = 2.4239123e-08, No Iterations 3
smoothSolver:  Solving for Uy, Initial residual = 4.591947e-06, Final residual = 1.6711562e-07, No Iterations 3
smoothSolver:  Solving for Uz, Initial residual = 2.465431e-07, Final residual = 8.6937471e-09, No Iterations 3
GAMG:  Solving for p, Initial residual = 1.1639403e-05, Final residual = 8.2254557e-08, No Iterations 3
time step continuity errors : sum local = 2.5650166e-08, global = 5.4934938e-11, cumulative = -0.00072926774
ExecutionTime = 244.88769 s  ClockTime = 249 s

Time = 1490s

smoothSolver:  Solving for Ux, Initial residual = 6.6691997e-07, Final residual = 2.4053484e-08, No Iterations 3
smoothSolver:  Solving for Uy, Initial residual = 4.5579754e-06, Final residual = 1.6581131e-07, No Iterations 3
smoothSolver:  Solving for Uz, Initial residual = 2.4473179e-07, Final residual = 8.6244874e-09, No Iterations 3
GAMG:  Solving for p, Initial residual = 1.1552643e-05, Final residual = 8.1645578e-08, No Iterations 3
time step continuity errors : sum local = 2.5460262e-08, global = -4.7252995e-12, cumulative = -0.00072926775
ExecutionTime = 245.04965 s  ClockTime = 249 s

Time = 1491s

smoothSolver:  Solving for Ux, Initial residual = 6.6238861e-07, Final residual = 2.3871723e-08, No Iterations 3
smoothSolver:  Solving for Uy, Initial residual = 4.5243729e-06, Final residual = 1.645331e-07, No Iterations 3
smoothSolver:  Solving for Uz, Initial residual = 2.4294994e-07, Final residual = 8.5574644e-09, No Iterations 3
GAMG:  Solving for p, Initial residual = 1.1462788e-05, Final residual = 8.1011865e-08, No Iterations 3
time step continuity errors : sum local = 2.5262645e-08, global = -6.7549914e-11, cumulative = -0.00072926781
ExecutionTime = 245.21112 s  ClockTime = 249 s

Time = 1492s

smoothSolver:  Solving for Ux, Initial residual = 6.5799438e-07, Final residual = 2.3690786e-08, No Iterations 3
smoothSolver:  Solving for Uy, Initial residual = 4.4914682e-06, Final residual = 1.6331935e-07, No Iterations 3
smoothSolver:  Solving for Uz, Initial residual = 2.4120857e-07, Final residual = 8.4907757e-09, No Iterations 3
GAMG:  Solving for p, Initial residual = 1.1373896e-05, Final residual = 8.0346733e-08, No Iterations 3
time step continuity errors : sum local = 2.505523e-08, global = -1.3205527e-10, cumulative = -0.00072926795
ExecutionTime = 245.37126 s  ClockTime = 249 s

Time = 1493s

smoothSolver:  Solving for Ux, Initial residual = 6.5352965e-07, Final residual = 2.3512692e-08, No Iterations 3
smoothSolver:  Solving for Uy, Initial residual = 4.4583735e-06, Final residual = 1.6211857e-07, No Iterations 3
smoothSolver:  Solving for Uz, Initial residual = 2.3947051e-07, Final residual = 8.4229997e-09, No Iterations 3
GAMG:  Solving for p, Initial residual = 1.1287872e-05, Final residual = 7.9672865e-08, No Iterations 3
time step continuity errors : sum local = 2.4845092e-08, global = -1.9851006e-10, cumulative = -0.00072926815
ExecutionTime = 245.53075 s  ClockTime = 249 s

Time = 1494s

smoothSolver:  Solving for Ux, Initial residual = 6.4904439e-07, Final residual = 2.334125e-08, No Iterations 3
smoothSolver:  Solving for Uy, Initial residual = 4.425958e-06, Final residual = 1.6097777e-07, No Iterations 3
smoothSolver:  Solving for Uz, Initial residual = 2.377184e-07, Final residual = 8.355939e-09, No Iterations 3
GAMG:  Solving for p, Initial residual = 1.1207287e-05, Final residual = 7.8991076e-08, No Iterations 3
time step continuity errors : sum local = 2.4632483e-08, global = -2.4673986e-10, cumulative = -0.00072926839
ExecutionTime = 245.69089 s  ClockTime = 249 s

Time = 1495s

smoothSolver:  Solving for Ux, Initial residual = 6.4462754e-07, Final residual = 2.3172284e-08, No Iterations 3
smoothSolver:  Solving for Uy, Initial residual = 4.3936013e-06, Final residual = 1.5988886e-07, No Iterations 3
smoothSolver:  Solving for Uz, Initial residual = 2.3596543e-07, Final residual = 8.2919963e-09, No Iterations 3
GAMG:  Solving for p, Initial residual = 1.1126894e-05, Final residual = 7.8269253e-08, No Iterations 3
time step continuity errors : sum local = 2.440739e-08, global = -2.9478914e-10, cumulative = -0.00072926869
ExecutionTime = 245.85045 s  ClockTime = 249 s

Time = 1496s

smoothSolver:  Solving for Ux, Initial residual = 6.4018395e-07, Final residual = 2.3006922e-08, No Iterations 3
smoothSolver:  Solving for Uy, Initial residual = 4.3611031e-06, Final residual = 1.5884467e-07, No Iterations 3
smoothSolver:  Solving for Uz, Initial residual = 2.3420375e-07, Final residual = 8.2291614e-09, No Iterations 3
GAMG:  Solving for p, Initial residual = 1.1045547e-05, Final residual = 7.7527537e-08, No Iterations 3
time step continuity errors : sum local = 2.4176094e-08, global = -3.3219173e-10, cumulative = -0.00072926902
ExecutionTime = 246.01242 s  ClockTime = 250 s

Time = 1497s

smoothSolver:  Solving for Ux, Initial residual = 6.3570862e-07, Final residual = 2.2838317e-08, No Iterations 3
smoothSolver:  Solving for Uy, Initial residual = 4.3291972e-06, Final residual = 1.578328e-07, No Iterations 3
smoothSolver:  Solving for Uz, Initial residual = 2.3247082e-07, Final residual = 8.1670488e-09, No Iterations 3
GAMG:  Solving for p, Initial residual = 1.0962581e-05, Final residual = 7.6789795e-08, No Iterations 3
time step continuity errors : sum local = 2.3946037e-08, global = -3.5821585e-10, cumulative = -0.00072926938
ExecutionTime = 246.17444 s  ClockTime = 250 s

Time = 1498s

smoothSolver:  Solving for Ux, Initial residual = 6.3116365e-07, Final residual = 2.2674464e-08, No Iterations 3
smoothSolver:  Solving for Uy, Initial residual = 4.2980705e-06, Final residual = 1.5682192e-07, No Iterations 3
smoothSolver:  Solving for Uz, Initial residual = 2.3078969e-07, Final residual = 8.1057419e-09, No Iterations 3
GAMG:  Solving for p, Initial residual = 1.0879875e-05, Final residual = 7.6068355e-08, No Iterations 3
time step continuity errors : sum local = 2.3721064e-08, global = -3.7177157e-10, cumulative = -0.00072926975
ExecutionTime = 246.33533 s  ClockTime = 250 s

Time = 1499s

smoothSolver:  Solving for Ux, Initial residual = 6.2642757e-07, Final residual = 2.2505376e-08, No Iterations 3
smoothSolver:  Solving for Uy, Initial residual = 4.2673817e-06, Final residual = 1.5578911e-07, No Iterations 3
smoothSolver:  Solving for Uz, Initial residual = 2.2912802e-07, Final residual = 8.0454736e-09, No Iterations 3
GAMG:  Solving for p, Initial residual = 1.0797394e-05, Final residual = 7.5360615e-08, No Iterations 3
time step continuity errors : sum local = 2.3500363e-08, global = -3.6841858e-10, cumulative = -0.00072927012
ExecutionTime = 246.49739 s  ClockTime = 250 s

Time = 1500s

smoothSolver:  Solving for Ux, Initial residual = 6.2176286e-07, Final residual = 2.2339116e-08, No Iterations 3
smoothSolver:  Solving for Uy, Initial residual = 4.236803e-06, Final residual = 1.5473397e-07, No Iterations 3
smoothSolver:  Solving for Uz, Initial residual = 2.2744437e-07, Final residual = 7.9851322e-09, No Iterations 3
GAMG:  Solving for p, Initial residual = 1.0714177e-05, Final residual = 7.4644257e-08, No Iterations 3
time step continuity errors : sum local = 2.3276975e-08, global = -3.6596749e-10, cumulative = -0.00072927048
ExecutionTime = 246.65748 s  ClockTime = 250 s

Time = 1501s

smoothSolver:  Solving for Ux, Initial residual = 6.1699062e-07, Final residual = 2.2176345e-08, No Iterations 3
smoothSolver:  Solving for Uy, Initial residual = 4.2060309e-06, Final residual = 1.5360433e-07, No Iterations 3
smoothSolver:  Solving for Uz, Initial residual = 2.2573883e-07, Final residual = 7.9245135e-09, No Iterations 3
GAMG:  Solving for p, Initial residual = 1.0633029e-05, Final residual = 7.3937522e-08, No Iterations 3
time step continuity errors : sum local = 2.3056587e-08, global = -3.5098166e-10, cumulative = -0.00072927083
ExecutionTime = 246.81983 s  ClockTime = 250 s

Time = 1502s

smoothSolver:  Solving for Ux, Initial residual = 6.1218342e-07, Final residual = 2.2007726e-08, No Iterations 3
smoothSolver:  Solving for Uy, Initial residual = 4.1753327e-06, Final residual = 1.5246292e-07, No Iterations 3
smoothSolver:  Solving for Uz, Initial residual = 2.2404585e-07, Final residual = 7.8647115e-09, No Iterations 3
GAMG:  Solving for p, Initial residual = 1.0552595e-05, Final residual = 7.3200552e-08, No Iterations 3
time step continuity errors : sum local = 2.2826771e-08, global = -3.3650881e-10, cumulative = -0.00072927117
ExecutionTime = 246.98055 s  ClockTime = 251 s

Time = 1503s

smoothSolver:  Solving for Ux, Initial residual = 6.0746103e-07, Final residual = 2.1833172e-08, No Iterations 3
smoothSolver:  Solving for Uy, Initial residual = 4.1445595e-06, Final residual = 1.5131245e-07, No Iterations 3
smoothSolver:  Solving for Uz, Initial residual = 2.2235367e-07, Final residual = 7.8053846e-09, No Iterations 3
GAMG:  Solving for p, Initial residual = 1.0472389e-05, Final residual = 7.2518032e-08, No Iterations 3
time step continuity errors : sum local = 2.2613935e-08, global = -3.1566111e-10, cumulative = -0.00072927149
ExecutionTime = 247.14166 s  ClockTime = 251 s

Time = 1504s

smoothSolver:  Solving for Ux, Initial residual = 6.0287344e-07, Final residual = 2.165366e-08, No Iterations 3
smoothSolver:  Solving for Uy, Initial residual = 4.1137073e-06, Final residual = 1.5016657e-07, No Iterations 3
smoothSolver:  Solving for Uz, Initial residual = 2.2065184e-07, Final residual = 7.7447508e-09, No Iterations 3
GAMG:  Solving for p, Initial residual = 1.0394816e-05, Final residual = 7.1888085e-08, No Iterations 3
time step continuity errors : sum local = 2.2417493e-08, global = -2.9574698e-10, cumulative = -0.00072927178
ExecutionTime = 247.30299 s  ClockTime = 251 s

Time = 1505s

smoothSolver:  Solving for Ux, Initial residual = 5.9831896e-07, Final residual = 2.1473534e-08, No Iterations 3
smoothSolver:  Solving for Uy, Initial residual = 4.0832657e-06, Final residual = 1.4900475e-07, No Iterations 3
smoothSolver:  Solving for Uz, Initial residual = 2.1893963e-07, Final residual = 7.6837662e-09, No Iterations 3
GAMG:  Solving for p, Initial residual = 1.0317684e-05, Final residual = 7.129754e-08, No Iterations 3
time step continuity errors : sum local = 2.2233338e-08, global = -2.7935775e-10, cumulative = -0.00072927206
ExecutionTime = 247.4643 s  ClockTime = 251 s

Time = 1506s

smoothSolver:  Solving for Ux, Initial residual = 5.9361524e-07, Final residual = 2.1296369e-08, No Iterations 3
smoothSolver:  Solving for Uy, Initial residual = 4.0528074e-06, Final residual = 1.4784465e-07, No Iterations 3
smoothSolver:  Solving for Uz, Initial residual = 2.1724596e-07, Final residual = 7.6224699e-09, No Iterations 3
GAMG:  Solving for p, Initial residual = 1.023908e-05, Final residual = 7.0730135e-08, No Iterations 3
time step continuity errors : sum local = 2.2056399e-08, global = -2.6448244e-10, cumulative = -0.00072927233
ExecutionTime = 247.62494 s  ClockTime = 251 s

Time = 1507s

smoothSolver:  Solving for Ux, Initial residual = 5.890252e-07, Final residual = 2.1119984e-08, No Iterations 3
smoothSolver:  Solving for Uy, Initial residual = 4.0228391e-06, Final residual = 1.4673342e-07, No Iterations 3
smoothSolver:  Solving for Uz, Initial residual = 2.1557599e-07, Final residual = 7.5608521e-09, No Iterations 3
GAMG:  Solving for p, Initial residual = 1.0159799e-05, Final residual = 7.0212842e-08, No Iterations 3
time step continuity errors : sum local = 2.1895087e-08, global = -2.5244679e-10, cumulative = -0.00072927258
ExecutionTime = 247.78755 s  ClockTime = 251 s

Time = 1508s

smoothSolver:  Solving for Ux, Initial residual = 5.8456531e-07, Final residual = 2.0946187e-08, No Iterations 3
smoothSolver:  Solving for Uy, Initial residual = 3.9929598e-06, Final residual = 1.4559661e-07, No Iterations 3
smoothSolver:  Solving for Uz, Initial residual = 2.1393014e-07, Final residual = 7.4999299e-09, No Iterations 3
GAMG:  Solving for p, Initial residual = 1.0080319e-05, Final residual = 6.9745602e-08, No Iterations 3
time step continuity errors : sum local = 2.1749383e-08, global = -2.4279973e-10, cumulative = -0.00072927282
ExecutionTime = 247.94939 s  ClockTime = 252 s

Time = 1509s

smoothSolver:  Solving for Ux, Initial residual = 5.8008188e-07, Final residual = 2.0777922e-08, No Iterations 3
smoothSolver:  Solving for Uy, Initial residual = 3.9636896e-06, Final residual = 1.4448189e-07, No Iterations 3
smoothSolver:  Solving for Uz, Initial residual = 2.1230581e-07, Final residual = 7.4392218e-09, No Iterations 3
GAMG:  Solving for p, Initial residual = 1.0002422e-05, Final residual = 6.9310041e-08, No Iterations 3
time step continuity errors : sum local = 2.1613559e-08, global = -2.353022e-10, cumulative = -0.00072927306
ExecutionTime = 248.10987 s  ClockTime = 252 s

Time = 1510s

smoothSolver:  Solving for Ux, Initial residual = 5.75442e-07, Final residual = 2.0608069e-08, No Iterations 3
smoothSolver:  Solving for Uy, Initial residual = 3.9348287e-06, Final residual = 1.4336292e-07, No Iterations 3
smoothSolver:  Solving for Uz, Initial residual = 2.1070437e-07, Final residual = 7.3788191e-09, No Iterations 3
GAMG:  Solving for p, Initial residual = 9.9261356e-06, Final residual = 6.8903253e-08, No Iterations 3
time step continuity errors : sum local = 2.1486706e-08, global = -2.2955275e-10, cumulative = -0.00072927329
ExecutionTime = 248.27153 s  ClockTime = 252 s


SIMPLE solution converged in 1510 iterations

End

Finalising parallel run
