/*---------------------------------------------------------------------------*\
  =========                 |
  \\      /  F ield         | OpenFOAM: The Open Source CFD Toolbox
   \\    /   O peration     | Website:  https://openfoam.org
    \\  /    A nd           | Version:  11
     \\/     M anipulation  |
\*---------------------------------------------------------------------------*/
Build  : 11-e1fc8c682ae6
Exec   : foamRun -solver incompressibleFluid -parallel
Date   : Feb 10 2026
Time   : 05:40:43
Host   : "ip-172-31-18-192"
PID    : 142874
I/O    : uncollated
Case   : /home/ubuntu/cases/bifurcation_angle60_1000_ascii/Re200
nProcs : 16
Slaves : 
15
(
"ip-172-31-18-192.142875"
"ip-172-31-18-192.142876"
"ip-172-31-18-192.142877"
"ip-172-31-18-192.142878"
"ip-172-31-18-192.142879"
"ip-172-31-18-192.142880"
"ip-172-31-18-192.142881"
"ip-172-31-18-192.142882"
"ip-172-31-18-192.142883"
"ip-172-31-18-192.142884"
"ip-172-31-18-192.142885"
"ip-172-31-18-192.142886"
"ip-172-31-18-192.142887"
"ip-172-31-18-192.142888"
"ip-172-31-18-192.142889"
)

Pstream initialised with:
    floatTransfer      : false
    nProcsSimpleSum    : 0
    commsType          : nonBlocking
    polling iterations : 0
sigFpe : Enabling floating point exception trapping (FOAM_SIGFPE).
fileModificationChecking : Monitoring run-time modified files using timeStampMaster (fileModificationSkew 10)
allowSystemOperations : Allowing user-supplied system call operations

// * * * * * * * * * * * * * * * * * * * * * * * * * * * * * * * * * * * * * //
Create time

Create mesh for time = 0

Selecting solver incompressibleFluid
Selecting viscosity model Newtonian
Selecting turbulence model type laminar
Selecting laminar stress model Stokes
No MRF models present


SIMPLE: Convergence criteria found
        p: tolerance 1e-05
        U: tolerance 1e-05


SIMPLE: Operating solver in steady-state mode with 1 outer corrector
SIMPLE: Operating solver in SIMPLE mode



Starting time loop

wallShearStress wallShearStress:
    processing wall patches: 
        wall-fluid_domain

Time = 1s

smoothSolver:  Solving for Ux, Initial residual = 1, Final residual = 0.057280102, No Iterations 1
smoothSolver:  Solving for Uy, Initial residual = 1, Final residual = 0.052922047, No Iterations 1
smoothSolver:  Solving for Uz, Initial residual = 1, Final residual = 0.0200853, No Iterations 1
GAMG:  Solving for p, Initial residual = 1, Final residual = 0.0045162908, No Iterations 11
time step continuity errors : sum local = 6.1297524e-05, global = -1.1921212e-06, cumulative = -1.1921212e-06
ExecutionTime = 0.789429 s  ClockTime = 1 s

Time = 2s

smoothSolver:  Solving for Ux, Initial residual = 0.25907874, Final residual = 0.01604892, No Iterations 2
smoothSolver:  Solving for Uy, Initial residual = 0.32198127, Final residual = 0.01458442, No Iterations 2
smoothSolver:  Solving for Uz, Initial residual = 0.32327452, Final residual = 0.027431472, No Iterations 2
GAMG:  Solving for p, Initial residual = 0.30774057, Final residual = 0.0024144635, No Iterations 6
time step continuity errors : sum local = 0.0037928605, global = -0.00012633742, cumulative = -0.00012752954
ExecutionTime = 1.021788 s  ClockTime = 1 s

Time = 3s

smoothSolver:  Solving for Ux, Initial residual = 0.22518547, Final residual = 0.022409427, No Iterations 2
smoothSolver:  Solving for Uy, Initial residual = 0.13122583, Final residual = 0.0077432907, No Iterations 2
smoothSolver:  Solving for Uz, Initial residual = 0.60290421, Final residual = 0.021396011, No Iterations 3
GAMG:  Solving for p, Initial residual = 0.15536521, Final residual = 0.00096604045, No Iterations 3
time step continuity errors : sum local = 0.0060521516, global = 9.9801341e-05, cumulative = -2.7728199e-05
ExecutionTime = 1.220923 s  ClockTime = 1 s

Time = 4s

smoothSolver:  Solving for Ux, Initial residual = 0.14805001, Final residual = 0.0048975086, No Iterations 3
smoothSolver:  Solving for Uy, Initial residual = 0.069516294, Final residual = 0.0041219805, No Iterations 2
smoothSolver:  Solving for Uz, Initial residual = 0.45426298, Final residual = 0.0161505, No Iterations 3
GAMG:  Solving for p, Initial residual = 0.10661119, Final residual = 0.0010152565, No Iterations 5
time step continuity errors : sum local = 0.0063237101, global = -4.4302718e-06, cumulative = -3.2158471e-05
ExecutionTime = 1.441851 s  ClockTime = 1 s

Time = 5s

smoothSolver:  Solving for Ux, Initial residual = 0.083655263, Final residual = 0.0078855804, No Iterations 2
smoothSolver:  Solving for Uy, Initial residual = 0.18797474, Final residual = 0.012554659, No Iterations 2
smoothSolver:  Solving for Uz, Initial residual = 0.17186788, Final residual = 0.0061279027, No Iterations 3
GAMG:  Solving for p, Initial residual = 0.092462728, Final residual = 0.00088824809, No Iterations 6
time step continuity errors : sum local = 0.0027890132, global = 0.00012400029, cumulative = 9.1841819e-05
ExecutionTime = 1.67621 s  ClockTime = 2 s

Time = 6s

smoothSolver:  Solving for Ux, Initial residual = 0.089225255, Final residual = 0.00691664, No Iterations 2
smoothSolver:  Solving for Uy, Initial residual = 0.40645817, Final residual = 0.026479657, No Iterations 2
smoothSolver:  Solving for Uz, Initial residual = 0.086379642, Final residual = 0.0030245829, No Iterations 3
GAMG:  Solving for p, Initial residual = 0.43650847, Final residual = 0.0019569676, No Iterations 5
time step continuity errors : sum local = 0.0036646248, global = -7.1337641e-05, cumulative = 2.0504178e-05
ExecutionTime = 1.896249 s  ClockTime = 2 s

Time = 7s

smoothSolver:  Solving for Ux, Initial residual = 0.1296984, Final residual = 0.012130262, No Iterations 2
smoothSolver:  Solving for Uy, Initial residual = 0.25052134, Final residual = 0.015721628, No Iterations 2
smoothSolver:  Solving for Uz, Initial residual = 0.25526361, Final residual = 0.0090669451, No Iterations 3
GAMG:  Solving for p, Initial residual = 0.26947209, Final residual = 0.0012125271, No Iterations 4
time step continuity errors : sum local = 0.0041511205, global = 1.3222424e-05, cumulative = 3.3726602e-05
ExecutionTime = 2.104291 s  ClockTime = 2 s

Time = 8s

smoothSolver:  Solving for Ux, Initial residual = 0.1117413, Final residual = 0.011154639, No Iterations 2
smoothSolver:  Solving for Uy, Initial residual = 0.13363977, Final residual = 0.0089479768, No Iterations 2
smoothSolver:  Solving for Uz, Initial residual = 0.26387528, Final residual = 0.0093740765, No Iterations 3
GAMG:  Solving for p, Initial residual = 0.21224475, Final residual = 0.0012113198, No Iterations 5
time step continuity errors : sum local = 0.0034113514, global = 2.2956557e-06, cumulative = 3.6022257e-05
ExecutionTime = 2.322305 s  ClockTime = 2 s

Time = 9s

smoothSolver:  Solving for Ux, Initial residual = 0.071051078, Final residual = 0.0064152573, No Iterations 2
smoothSolver:  Solving for Uy, Initial residual = 0.25916587, Final residual = 0.020049838, No Iterations 2
smoothSolver:  Solving for Uz, Initial residual = 0.090424703, Final residual = 0.0031652041, No Iterations 3
GAMG:  Solving for p, Initial residual = 0.21994018, Final residual = 0.0011397002, No Iterations 6
time step continuity errors : sum local = 0.0012477488, global = -3.7101992e-05, cumulative = -1.0797349e-06
ExecutionTime = 2.553755 s  ClockTime = 3 s

Time = 10s

smoothSolver:  Solving for Ux, Initial residual = 0.073980244, Final residual = 0.006256918, No Iterations 2
smoothSolver:  Solving for Uy, Initial residual = 0.39694746, Final residual = 0.028270848, No Iterations 2
smoothSolver:  Solving for Uz, Initial residual = 0.091891992, Final residual = 0.0032732887, No Iterations 3
GAMG:  Solving for p, Initial residual = 0.31255431, Final residual = 0.0028665242, No Iterations 4
time step continuity errors : sum local = 0.0032863184, global = -5.0875571e-05, cumulative = -5.1955306e-05
ExecutionTime = 2.762 s  ClockTime = 3 s

Time = 11s

smoothSolver:  Solving for Ux, Initial residual = 0.071804307, Final residual = 0.0068388753, No Iterations 2
smoothSolver:  Solving for Uy, Initial residual = 0.22951191, Final residual = 0.015138278, No Iterations 2
smoothSolver:  Solving for Uz, Initial residual = 0.13929804, Final residual = 0.004967579, No Iterations 3
GAMG:  Solving for p, Initial residual = 0.22857002, Final residual = 0.0016472767, No Iterations 4
time step continuity errors : sum local = 0.0027303968, global = 7.2998002e-06, cumulative = -4.4655506e-05
ExecutionTime = 2.971437 s  ClockTime = 3 s

Time = 12s

smoothSolver:  Solving for Ux, Initial residual = 0.047011614, Final residual = 0.0015079236, No Iterations 3
smoothSolver:  Solving for Uy, Initial residual = 0.15075797, Final residual = 0.011831558, No Iterations 2
smoothSolver:  Solving for Uz, Initial residual = 0.092999233, Final residual = 0.003319737, No Iterations 3
GAMG:  Solving for p, Initial residual = 0.17838318, Final residual = 0.0013758914, No Iterations 5
time step continuity errors : sum local = 0.0016997766, global = -4.7470932e-06, cumulative = -4.9402599e-05
ExecutionTime = 3.194942 s  ClockTime = 3 s

Time = 13s

smoothSolver:  Solving for Ux, Initial residual = 0.029386561, Final residual = 0.0025714206, No Iterations 2
smoothSolver:  Solving for Uy, Initial residual = 0.3172179, Final residual = 0.026121293, No Iterations 2
smoothSolver:  Solving for Uz, Initial residual = 0.019457427, Final residual = 0.00062024918, No Iterations 3
GAMG:  Solving for p, Initial residual = 0.29239188, Final residual = 0.001289879, No Iterations 6
time step continuity errors : sum local = 0.00052751716, global = 1.6231026e-05, cumulative = -3.3171573e-05
ExecutionTime = 3.427417 s  ClockTime = 3 s

Time = 14s

smoothSolver:  Solving for Ux, Initial residual = 0.034141067, Final residual = 0.003030902, No Iterations 2
smoothSolver:  Solving for Uy, Initial residual = 0.33442599, Final residual = 0.025315362, No Iterations 2
smoothSolver:  Solving for Uz, Initial residual = 0.046415704, Final residual = 0.0016394992, No Iterations 3
GAMG:  Solving for p, Initial residual = 0.30463097, Final residual = 0.0021060681, No Iterations 4
time step continuity errors : sum local = 0.001321434, global = 1.4182025e-05, cumulative = -1.8989549e-05
ExecutionTime = 3.636915 s  ClockTime = 4 s

Time = 15s

smoothSolver:  Solving for Ux, Initial residual = 0.033509998, Final residual = 0.0032307153, No Iterations 2
smoothSolver:  Solving for Uy, Initial residual = 0.18108836, Final residual = 0.012643913, No Iterations 2
smoothSolver:  Solving for Uz, Initial residual = 0.063584008, Final residual = 0.0022503728, No Iterations 3
GAMG:  Solving for p, Initial residual = 0.23164879, Final residual = 0.0020473939, No Iterations 4
time step continuity errors : sum local = 0.0015459146, global = -1.167391e-05, cumulative = -3.0663458e-05
ExecutionTime = 3.847913 s  ClockTime = 4 s

Time = 16s

smoothSolver:  Solving for Ux, Initial residual = 0.023311939, Final residual = 0.00073910101, No Iterations 3
smoothSolver:  Solving for Uy, Initial residual = 0.15081603, Final residual = 0.012855542, No Iterations 2
smoothSolver:  Solving for Uz, Initial residual = 0.039719595, Final residual = 0.0013992357, No Iterations 3
GAMG:  Solving for p, Initial residual = 0.18430903, Final residual = 0.0016600131, No Iterations 5
time step continuity errors : sum local = 0.00081479569, global = 2.0048266e-06, cumulative = -2.8658632e-05
ExecutionTime = 4.071117 s  ClockTime = 4 s

Time = 17s

smoothSolver:  Solving for Ux, Initial residual = 0.016550383, Final residual = 0.0014081522, No Iterations 2
smoothSolver:  Solving for Uy, Initial residual = 0.28179552, Final residual = 0.023624497, No Iterations 2
smoothSolver:  Solving for Uz, Initial residual = 0.0087284966, Final residual = 0.00080866246, No Iterations 2
GAMG:  Solving for p, Initial residual = 0.42328859, Final residual = 0.0036217163, No Iterations 5
time step continuity errors : sum local = 0.00055184335, global = 8.2099393e-07, cumulative = -2.7837638e-05
ExecutionTime = 4.289236 s  ClockTime = 4 s

Time = 18s

smoothSolver:  Solving for Ux, Initial residual = 0.018755411, Final residual = 0.0017484631, No Iterations 2
smoothSolver:  Solving for Uy, Initial residual = 0.24215275, Final residual = 0.018766293, No Iterations 2
smoothSolver:  Solving for Uz, Initial residual = 0.02771383, Final residual = 0.00099833182, No Iterations 3
GAMG:  Solving for p, Initial residual = 0.23433035, Final residual = 0.001224995, No Iterations 4
time step continuity errors : sum local = 0.00048768121, global = -6.2653588e-06, cumulative = -3.4102996e-05
ExecutionTime = 4.496374 s  ClockTime = 4 s

Time = 19s

smoothSolver:  Solving for Ux, Initial residual = 0.015753829, Final residual = 0.0015730453, No Iterations 2
smoothSolver:  Solving for Uy, Initial residual = 0.13358109, Final residual = 0.010042866, No Iterations 2
smoothSolver:  Solving for Uz, Initial residual = 0.029131991, Final residual = 0.0010487241, No Iterations 3
GAMG:  Solving for p, Initial residual = 0.18316019, Final residual = 0.00083118222, No Iterations 5
time step continuity errors : sum local = 0.00034380769, global = 1.8819087e-07, cumulative = -3.3914805e-05
ExecutionTime = 4.71923 s  ClockTime = 5 s

Time = 20s

smoothSolver:  Solving for Ux, Initial residual = 0.01080708, Final residual = 0.00034934989, No Iterations 3
smoothSolver:  Solving for Uy, Initial residual = 0.13791445, Final residual = 0.012412524, No Iterations 2
smoothSolver:  Solving for Uz, Initial residual = 0.01451182, Final residual = 0.00052235575, No Iterations 3
GAMG:  Solving for p, Initial residual = 0.13309768, Final residual = 0.0005522281, No Iterations 6
time step continuity errors : sum local = 0.00014780843, global = 4.3902425e-06, cumulative = -2.9524563e-05
ExecutionTime = 4.95344 s  ClockTime = 5 s

Time = 21s

smoothSolver:  Solving for Ux, Initial residual = 0.0084757878, Final residual = 0.00074378534, No Iterations 2
smoothSolver:  Solving for Uy, Initial residual = 0.19351856, Final residual = 0.016573372, No Iterations 2
smoothSolver:  Solving for Uz, Initial residual = 0.0055421924, Final residual = 0.00053308522, No Iterations 2
GAMG:  Solving for p, Initial residual = 0.34110621, Final residual = 0.0021068715, No Iterations 5
time step continuity errors : sum local = 0.00021884384, global = -5.6912072e-07, cumulative = -3.0093684e-05
ExecutionTime = 5.172422 s  ClockTime = 5 s

Time = 22s

smoothSolver:  Solving for Ux, Initial residual = 0.0085156354, Final residual = 0.00078318071, No Iterations 2
smoothSolver:  Solving for Uy, Initial residual = 0.14763189, Final residual = 0.011764183, No Iterations 2
smoothSolver:  Solving for Uz, Initial residual = 0.013228199, Final residual = 0.00045918326, No Iterations 3
GAMG:  Solving for p, Initial residual = 0.22942476, Final residual = 0.0014139841, No Iterations 4
time step continuity errors : sum local = 0.00027816421, global = -1.9301038e-06, cumulative = -3.2023788e-05
ExecutionTime = 5.379764 s  ClockTime = 5 s

Time = 23s

smoothSolver:  Solving for Ux, Initial residual = 0.0067912806, Final residual = 0.00066603624, No Iterations 2
smoothSolver:  Solving for Uy, Initial residual = 0.082883901, Final residual = 0.0066495033, No Iterations 2
smoothSolver:  Solving for Uz, Initial residual = 0.012234154, Final residual = 0.00042398626, No Iterations 3
GAMG:  Solving for p, Initial residual = 0.1791795, Final residual = 0.00097025999, No Iterations 5
time step continuity errors : sum local = 0.00017902491, global = 5.5470423e-08, cumulative = -3.1968317e-05
ExecutionTime = 5.598784 s  ClockTime = 6 s

Time = 24s

smoothSolver:  Solving for Ux, Initial residual = 0.0049876056, Final residual = 0.00048102048, No Iterations 2
smoothSolver:  Solving for Uy, Initial residual = 0.097142362, Final residual = 0.0088979458, No Iterations 2
smoothSolver:  Solving for Uz, Initial residual = 0.004816908, Final residual = 0.00015475998, No Iterations 3
GAMG:  Solving for p, Initial residual = 0.14805454, Final residual = 0.00062494573, No Iterations 6
time step continuity errors : sum local = 6.5761198e-05, global = -1.70417e-06, cumulative = -3.3672487e-05
ExecutionTime = 5.831108 s  ClockTime = 6 s

Time = 25s

smoothSolver:  Solving for Ux, Initial residual = 0.0049750232, Final residual = 0.00046956585, No Iterations 2
smoothSolver:  Solving for Uy, Initial residual = 0.11317937, Final residual = 0.0098759001, No Iterations 2
smoothSolver:  Solving for Uz, Initial residual = 0.0054344681, Final residual = 0.00018991165, No Iterations 3
GAMG:  Solving for p, Initial residual = 0.13747173, Final residual = 0.00060625042, No Iterations 5
time step continuity errors : sum local = 8.3242301e-05, global = -4.1568527e-07, cumulative = -3.4088172e-05
ExecutionTime = 6.052161 s  ClockTime = 6 s

Time = 26s

smoothSolver:  Solving for Ux, Initial residual = 0.0048416744, Final residual = 0.00048090561, No Iterations 2
smoothSolver:  Solving for Uy, Initial residual = 0.080889812, Final residual = 0.0068273749, No Iterations 2
smoothSolver:  Solving for Uz, Initial residual = 0.007632557, Final residual = 0.00027619737, No Iterations 3
GAMG:  Solving for p, Initial residual = 0.12101177, Final residual = 0.0009866481, No Iterations 4
time step continuity errors : sum local = 0.00016995896, global = 3.534574e-08, cumulative = -3.4052827e-05
ExecutionTime = 6.260479 s  ClockTime = 6 s

Time = 27s

smoothSolver:  Solving for Ux, Initial residual = 0.0039160707, Final residual = 0.00013013491, No Iterations 3
smoothSolver:  Solving for Uy, Initial residual = 0.052651445, Final residual = 0.0048497967, No Iterations 2
smoothSolver:  Solving for Uz, Initial residual = 0.006345551, Final residual = 0.000227484, No Iterations 3
GAMG:  Solving for p, Initial residual = 0.085130603, Final residual = 0.00056845696, No Iterations 5
time step continuity errors : sum local = 9.0811008e-05, global = -3.024476e-07, cumulative = -3.4355274e-05
ExecutionTime = 6.483796 s  ClockTime = 6 s

Time = 28s

smoothSolver:  Solving for Ux, Initial residual = 0.0033791599, Final residual = 0.00010797629, No Iterations 3
smoothSolver:  Solving for Uy, Initial residual = 0.061656399, Final residual = 0.0058264357, No Iterations 2
smoothSolver:  Solving for Uz, Initial residual = 0.0039082804, Final residual = 0.00013323726, No Iterations 3
GAMG:  Solving for p, Initial residual = 0.063694806, Final residual = 0.00060936961, No Iterations 5
time step continuity errors : sum local = 7.3554639e-05, global = -2.4425059e-07, cumulative = -3.4599525e-05
ExecutionTime = 6.707143 s  ClockTime = 7 s

Time = 29s

smoothSolver:  Solving for Ux, Initial residual = 0.0029415986, Final residual = 0.00028261908, No Iterations 2
smoothSolver:  Solving for Uy, Initial residual = 0.062236524, Final residual = 0.0056253602, No Iterations 2
smoothSolver:  Solving for Uz, Initial residual = 0.0030648994, Final residual = 9.7648618e-05, No Iterations 3
GAMG:  Solving for p, Initial residual = 0.12024731, Final residual = 0.0010026419, No Iterations 4
time step continuity errors : sum local = 8.7710824e-05, global = 6.9812822e-07, cumulative = -3.3901397e-05
ExecutionTime = 6.915203 s  ClockTime = 7 s

Time = 30s

smoothSolver:  Solving for Ux, Initial residual = 0.0024395014, Final residual = 0.00023580082, No Iterations 2
smoothSolver:  Solving for Uy, Initial residual = 0.044484056, Final residual = 0.0040366096, No Iterations 2
smoothSolver:  Solving for Uz, Initial residual = 0.0032748426, Final residual = 0.00010625259, No Iterations 3
GAMG:  Solving for p, Initial residual = 0.11264834, Final residual = 0.00093263124, No Iterations 4
time step continuity errors : sum local = 8.4953742e-05, global = -2.857626e-07, cumulative = -3.4187159e-05
ExecutionTime = 7.124878 s  ClockTime = 7 s

Time = 31s

smoothSolver:  Solving for Ux, Initial residual = 0.0021679007, Final residual = 6.8449712e-05, No Iterations 3
smoothSolver:  Solving for Uy, Initial residual = 0.035413722, Final residual = 0.0034809083, No Iterations 2
smoothSolver:  Solving for Uz, Initial residual = 0.0028216306, Final residual = 9.1559811e-05, No Iterations 3
GAMG:  Solving for p, Initial residual = 0.076577565, Final residual = 0.0004992651, No Iterations 5
time step continuity errors : sum local = 4.238391e-05, global = -1.1716837e-08, cumulative = -3.4198876e-05
ExecutionTime = 7.343771 s  ClockTime = 7 s

Time = 32s

smoothSolver:  Solving for Ux, Initial residual = 0.0023021707, Final residual = 7.4032953e-05, No Iterations 3
smoothSolver:  Solving for Uy, Initial residual = 0.040044368, Final residual = 0.0039160308, No Iterations 2
smoothSolver:  Solving for Uz, Initial residual = 0.0030453802, Final residual = 0.00010271601, No Iterations 3
GAMG:  Solving for p, Initial residual = 0.044490345, Final residual = 0.00029024885, No Iterations 5
time step continuity errors : sum local = 2.9902282e-05, global = -1.3884856e-07, cumulative = -3.4337725e-05
ExecutionTime = 7.56631 s  ClockTime = 8 s

Time = 33s

smoothSolver:  Solving for Ux, Initial residual = 0.0023471377, Final residual = 7.6710948e-05, No Iterations 3
smoothSolver:  Solving for Uy, Initial residual = 0.037835196, Final residual = 0.0036520123, No Iterations 2
smoothSolver:  Solving for Uz, Initial residual = 0.0034950951, Final residual = 0.00012109554, No Iterations 3
GAMG:  Solving for p, Initial residual = 0.046936443, Final residual = 0.00029033682, No Iterations 4
time step continuity errors : sum local = 3.4119584e-05, global = -4.5983749e-07, cumulative = -3.4797562e-05
ExecutionTime = 7.775759 s  ClockTime = 8 s

Time = 34s

smoothSolver:  Solving for Ux, Initial residual = 0.0021772284, Final residual = 7.3027806e-05, No Iterations 3
smoothSolver:  Solving for Uy, Initial residual = 0.030047932, Final residual = 0.00094460629, No Iterations 3
smoothSolver:  Solving for Uz, Initial residual = 0.0035198528, Final residual = 0.0001225047, No Iterations 3
GAMG:  Solving for p, Initial residual = 0.040461279, Final residual = 0.00037703079, No Iterations 4
time step continuity errors : sum local = 4.5541523e-05, global = 5.2332922e-07, cumulative = -3.4274233e-05
ExecutionTime = 7.988541 s  ClockTime = 8 s

Time = 35s

smoothSolver:  Solving for Ux, Initial residual = 0.0020242444, Final residual = 6.8319243e-05, No Iterations 3
smoothSolver:  Solving for Uy, Initial residual = 0.027199283, Final residual = 0.00089154449, No Iterations 3
smoothSolver:  Solving for Uz, Initial residual = 0.0031906864, Final residual = 0.0001098665, No Iterations 3
GAMG:  Solving for p, Initial residual = 0.029278682, Final residual = 0.00018135895, No Iterations 5
time step continuity errors : sum local = 2.0898825e-05, global = -1.4744296e-07, cumulative = -3.4421676e-05
ExecutionTime = 8.214053 s  ClockTime = 8 s

Time = 36s

smoothSolver:  Solving for Ux, Initial residual = 0.0019190268, Final residual = 6.3621223e-05, No Iterations 3
smoothSolver:  Solving for Uy, Initial residual = 0.027779894, Final residual = 0.00089343627, No Iterations 3
smoothSolver:  Solving for Uz, Initial residual = 0.0028135972, Final residual = 9.5360174e-05, No Iterations 3
GAMG:  Solving for p, Initial residual = 0.030532309, Final residual = 0.0003032994, No Iterations 4
time step continuity errors : sum local = 3.2346823e-05, global = 4.7279431e-07, cumulative = -3.3948882e-05
ExecutionTime = 8.428279 s  ClockTime = 8 s

Time = 37s

smoothSolver:  Solving for Ux, Initial residual = 0.0017965971, Final residual = 5.9241131e-05, No Iterations 3
smoothSolver:  Solving for Uy, Initial residual = 0.025741515, Final residual = 0.00082888734, No Iterations 3
smoothSolver:  Solving for Uz, Initial residual = 0.0026138554, Final residual = 8.7825434e-05, No Iterations 3
GAMG:  Solving for p, Initial residual = 0.035666823, Final residual = 0.00018984335, No Iterations 4
time step continuity errors : sum local = 1.9236673e-05, global = 2.2521718e-07, cumulative = -3.3723664e-05
ExecutionTime = 8.640377 s  ClockTime = 9 s

Time = 38s

smoothSolver:  Solving for Ux, Initial residual = 0.0017070614, Final residual = 5.6910766e-05, No Iterations 3
smoothSolver:  Solving for Uy, Initial residual = 0.023154366, Final residual = 0.00076965156, No Iterations 3
smoothSolver:  Solving for Uz, Initial residual = 0.0025615992, Final residual = 8.6226772e-05, No Iterations 3
GAMG:  Solving for p, Initial residual = 0.031513159, Final residual = 0.00021606079, No Iterations 4
time step continuity errors : sum local = 2.186084e-05, global = -1.2794493e-07, cumulative = -3.3851609e-05
ExecutionTime = 8.853936 s  ClockTime = 9 s

Time = 39s

smoothSolver:  Solving for Ux, Initial residual = 0.0016893591, Final residual = 5.6792743e-05, No Iterations 3
smoothSolver:  Solving for Uy, Initial residual = 0.022738499, Final residual = 0.00076502154, No Iterations 3
smoothSolver:  Solving for Uz, Initial residual = 0.0025932464, Final residual = 8.8008286e-05, No Iterations 3
GAMG:  Solving for p, Initial residual = 0.024522069, Final residual = 0.00020256192, No Iterations 4
time step continuity errors : sum local = 2.1183171e-05, global = -1.8137244e-07, cumulative = -3.4032982e-05
ExecutionTime = 9.065976 s  ClockTime = 9 s

Time = 40s

smoothSolver:  Solving for Ux, Initial residual = 0.001684679, Final residual = 5.690467e-05, No Iterations 3
smoothSolver:  Solving for Uy, Initial residual = 0.022604068, Final residual = 0.00075749456, No Iterations 3
smoothSolver:  Solving for Uz, Initial residual = 0.0026545014, Final residual = 9.0931322e-05, No Iterations 3
GAMG:  Solving for p, Initial residual = 0.022351789, Final residual = 0.00012500646, No Iterations 4
time step continuity errors : sum local = 1.359796e-05, global = -4.7783721e-08, cumulative = -3.4080765e-05
ExecutionTime = 9.278896 s  ClockTime = 9 s

Time = 41s

smoothSolver:  Solving for Ux, Initial residual = 0.0016476781, Final residual = 5.60162e-05, No Iterations 3
smoothSolver:  Solving for Uy, Initial residual = 0.021408511, Final residual = 0.00072281279, No Iterations 3
smoothSolver:  Solving for Uz, Initial residual = 0.0026700437, Final residual = 9.194618e-05, No Iterations 3
GAMG:  Solving for p, Initial residual = 0.021736868, Final residual = 9.9214102e-05, No Iterations 4
time step continuity errors : sum local = 1.1042229e-05, global = 5.1546248e-08, cumulative = -3.4029219e-05
ExecutionTime = 9.493591 s  ClockTime = 10 s

Time = 42s

smoothSolver:  Solving for Ux, Initial residual = 0.0015959338, Final residual = 5.4509402e-05, No Iterations 3
smoothSolver:  Solving for Uy, Initial residual = 0.020190773, Final residual = 0.0006902767, No Iterations 3
smoothSolver:  Solving for Uz, Initial residual = 0.002612993, Final residual = 9.0015235e-05, No Iterations 3
GAMG:  Solving for p, Initial residual = 0.020050633, Final residual = 0.00012632411, No Iterations 4
time step continuity errors : sum local = 1.4083004e-05, global = 1.7048853e-07, cumulative = -3.3858731e-05
ExecutionTime = 9.70603 s  ClockTime = 10 s

Time = 43s

smoothSolver:  Solving for Ux, Initial residual = 0.0015498229, Final residual = 5.2891107e-05, No Iterations 3
smoothSolver:  Solving for Uy, Initial residual = 0.019606585, Final residual = 0.00067180284, No Iterations 3
smoothSolver:  Solving for Uz, Initial residual = 0.0025120879, Final residual = 8.6300444e-05, No Iterations 3
GAMG:  Solving for p, Initial residual = 0.019097797, Final residual = 0.00011808231, No Iterations 4
time step continuity errors : sum local = 1.299693e-05, global = 1.832282e-07, cumulative = -3.3675502e-05
ExecutionTime = 9.918524 s  ClockTime = 10 s

Time = 44s

smoothSolver:  Solving for Ux, Initial residual = 0.00150842, Final residual = 5.1374342e-05, No Iterations 3
smoothSolver:  Solving for Uy, Initial residual = 0.019148864, Final residual = 0.00065495443, No Iterations 3
smoothSolver:  Solving for Uz, Initial residual = 0.0024188423, Final residual = 8.2869025e-05, No Iterations 3
GAMG:  Solving for p, Initial residual = 0.019549192, Final residual = 8.9794337e-05, No Iterations 4
time step continuity errors : sum local = 9.745315e-06, global = 7.0386715e-08, cumulative = -3.3605116e-05
ExecutionTime = 10.129849 s  ClockTime = 10 s

Time = 45s

smoothSolver:  Solving for Ux, Initial residual = 0.0014716298, Final residual = 5.0153876e-05, No Iterations 3
smoothSolver:  Solving for Uy, Initial residual = 0.018565849, Final residual = 0.00063699571, No Iterations 3
smoothSolver:  Solving for Uz, Initial residual = 0.0023581704, Final residual = 8.075015e-05, No Iterations 3
GAMG:  Solving for p, Initial residual = 0.019445327, Final residual = 0.00012906172, No Iterations 3
time step continuity errors : sum local = 1.3929742e-05, global = 8.1882345e-08, cumulative = -3.3523233e-05
ExecutionTime = 10.333656 s  ClockTime = 10 s

Time = 46s

smoothSolver:  Solving for Ux, Initial residual = 0.0014441822, Final residual = 4.933169e-05, No Iterations 3
smoothSolver:  Solving for Uy, Initial residual = 0.018082051, Final residual = 0.0006229446, No Iterations 3
smoothSolver:  Solving for Uz, Initial residual = 0.0023248981, Final residual = 7.9751397e-05, No Iterations 3
GAMG:  Solving for p, Initial residual = 0.018397649, Final residual = 0.00015911074, No Iterations 3
time step continuity errors : sum local = 1.7249965e-05, global = -1.1593504e-07, cumulative = -3.3639168e-05
ExecutionTime = 10.535116 s  ClockTime = 11 s

Time = 47s

smoothSolver:  Solving for Ux, Initial residual = 0.0014219549, Final residual = 4.867308e-05, No Iterations 3
smoothSolver:  Solving for Uy, Initial residual = 0.017702477, Final residual = 0.00061063065, No Iterations 3
smoothSolver:  Solving for Uz, Initial residual = 0.0023059264, Final residual = 7.9322838e-05, No Iterations 3
GAMG:  Solving for p, Initial residual = 0.017369011, Final residual = 0.0001512346, No Iterations 3
time step continuity errors : sum local = 1.6553321e-05, global = -1.0695708e-07, cumulative = -3.3746126e-05
ExecutionTime = 10.735521 s  ClockTime = 11 s

Time = 48s

smoothSolver:  Solving for Ux, Initial residual = 0.0013987329, Final residual = 4.7969265e-05, No Iterations 3
smoothSolver:  Solving for Uy, Initial residual = 0.017262063, Final residual = 0.00059571371, No Iterations 3
smoothSolver:  Solving for Uz, Initial residual = 0.0022875331, Final residual = 7.8899182e-05, No Iterations 3
GAMG:  Solving for p, Initial residual = 0.016743865, Final residual = 0.00010786901, No Iterations 3
time step continuity errors : sum local = 1.1920504e-05, global = -2.5279249e-08, cumulative = -3.3771405e-05
ExecutionTime = 10.935132 s  ClockTime = 11 s

Time = 49s

smoothSolver:  Solving for Ux, Initial residual = 0.0013730715, Final residual = 4.7167394e-05, No Iterations 3
smoothSolver:  Solving for Uy, Initial residual = 0.016764484, Final residual = 0.00057917462, No Iterations 3
smoothSolver:  Solving for Uz, Initial residual = 0.0022591544, Final residual = 7.8044321e-05, No Iterations 3
GAMG:  Solving for p, Initial residual = 0.016268592, Final residual = 0.00013529499, No Iterations 3
time step continuity errors : sum local = 1.5037295e-05, global = 1.4046302e-07, cumulative = -3.3630942e-05
ExecutionTime = 11.136879 s  ClockTime = 11 s

Time = 50s

smoothSolver:  Solving for Ux, Initial residual = 0.0013481277, Final residual = 4.6353185e-05, No Iterations 3
smoothSolver:  Solving for Uy, Initial residual = 0.016315679, Final residual = 0.00056403739, No Iterations 3
smoothSolver:  Solving for Uz, Initial residual = 0.0022221969, Final residual = 7.6819267e-05, No Iterations 3
GAMG:  Solving for p, Initial residual = 0.01584813, Final residual = 6.856946e-05, No Iterations 4
time step continuity errors : sum local = 7.6382657e-06, global = 4.1901502e-08, cumulative = -3.358904e-05
ExecutionTime = 11.350175 s  ClockTime = 11 s

Time = 51s

smoothSolver:  Solving for Ux, Initial residual = 0.0013242546, Final residual = 4.5525615e-05, No Iterations 3
smoothSolver:  Solving for Uy, Initial residual = 0.015943415, Final residual = 0.0005508663, No Iterations 3
smoothSolver:  Solving for Uz, Initial residual = 0.0021771493, Final residual = 7.5240559e-05, No Iterations 3
GAMG:  Solving for p, Initial residual = 0.015626632, Final residual = 6.5838191e-05, No Iterations 4
time step continuity errors : sum local = 7.322473e-06, global = 3.5734885e-08, cumulative = -3.3553305e-05
ExecutionTime = 11.563228 s  ClockTime = 12 s

Time = 52s

smoothSolver:  Solving for Ux, Initial residual = 0.0013020549, Final residual = 4.4749793e-05, No Iterations 3
smoothSolver:  Solving for Uy, Initial residual = 0.0155995, Final residual = 0.00053868775, No Iterations 3
smoothSolver:  Solving for Uz, Initial residual = 0.0021345214, Final residual = 7.3757926e-05, No Iterations 3
GAMG:  Solving for p, Initial residual = 0.015493112, Final residual = 0.00014213482, No Iterations 3
time step continuity errors : sum local = 1.5782241e-05, global = 1.3224554e-07, cumulative = -3.342106e-05
ExecutionTime = 11.764062 s  ClockTime = 12 s

Time = 53s

smoothSolver:  Solving for Ux, Initial residual = 0.0012815907, Final residual = 4.4060562e-05, No Iterations 3
smoothSolver:  Solving for Uy, Initial residual = 0.015254548, Final residual = 0.00052701624, No Iterations 3
smoothSolver:  Solving for Uz, Initial residual = 0.0020999385, Final residual = 7.2607549e-05, No Iterations 3
GAMG:  Solving for p, Initial residual = 0.015208752, Final residual = 9.3027153e-05, No Iterations 3
time step continuity errors : sum local = 1.0339717e-05, global = 1.6208922e-07, cumulative = -3.3258971e-05
ExecutionTime = 11.966102 s  ClockTime = 12 s

Time = 54s

smoothSolver:  Solving for Ux, Initial residual = 0.0012627824, Final residual = 4.3437672e-05, No Iterations 3
smoothSolver:  Solving for Uy, Initial residual = 0.014920855, Final residual = 0.00051577543, No Iterations 3
smoothSolver:  Solving for Uz, Initial residual = 0.0020708579, Final residual = 7.1679405e-05, No Iterations 3
GAMG:  Solving for p, Initial residual = 0.0148329, Final residual = 7.7840035e-05, No Iterations 3
time step continuity errors : sum local = 8.6773027e-06, global = 1.5051609e-07, cumulative = -3.3108455e-05
ExecutionTime = 12.167831 s  ClockTime = 12 s

Time = 55s

smoothSolver:  Solving for Ux, Initial residual = 0.001244797, Final residual = 4.2846108e-05, No Iterations 3
smoothSolver:  Solving for Uy, Initial residual = 0.014592545, Final residual = 0.00050469038, No Iterations 3
smoothSolver:  Solving for Uz, Initial residual = 0.0020439451, Final residual = 7.0829357e-05, No Iterations 3
GAMG:  Solving for p, Initial residual = 0.014487622, Final residual = 8.3445076e-05, No Iterations 3
time step continuity errors : sum local = 9.3346946e-06, global = 1.5244904e-07, cumulative = -3.2956005e-05
ExecutionTime = 12.372171 s  ClockTime = 12 s

Time = 56s

smoothSolver:  Solving for Ux, Initial residual = 0.0012270766, Final residual = 4.2263776e-05, No Iterations 3
smoothSolver:  Solving for Uy, Initial residual = 0.014266665, Final residual = 0.00049367078, No Iterations 3
smoothSolver:  Solving for Uz, Initial residual = 0.0020177929, Final residual = 6.9997454e-05, No Iterations 3
GAMG:  Solving for p, Initial residual = 0.014183122, Final residual = 9.5052107e-05, No Iterations 3
time step continuity errors : sum local = 1.0669435e-05, global = 1.8239536e-07, cumulative = -3.277361e-05
ExecutionTime = 12.573925 s  ClockTime = 13 s

Time = 57s

smoothSolver:  Solving for Ux, Initial residual = 0.0012097166, Final residual = 4.1690778e-05, No Iterations 3
smoothSolver:  Solving for Uy, Initial residual = 0.013950992, Final residual = 0.00048315687, No Iterations 3
smoothSolver:  Solving for Uz, Initial residual = 0.0019914191, Final residual = 6.9144366e-05, No Iterations 3
GAMG:  Solving for p, Initial residual = 0.013918868, Final residual = 0.00012307475, No Iterations 3
time step continuity errors : sum local = 1.3855418e-05, global = 1.6723573e-07, cumulative = -3.2606374e-05
ExecutionTime = 12.778144 s  ClockTime = 13 s

Time = 58s

smoothSolver:  Solving for Ux, Initial residual = 0.0011927682, Final residual = 4.1123664e-05, No Iterations 3
smoothSolver:  Solving for Uy, Initial residual = 0.013655173, Final residual = 0.00047330146, No Iterations 3
smoothSolver:  Solving for Uz, Initial residual = 0.0019641664, Final residual = 6.8240937e-05, No Iterations 3
GAMG:  Solving for p, Initial residual = 0.013695639, Final residual = 0.00013316573, No Iterations 3
time step continuity errors : sum local = 1.5023047e-05, global = 1.4721542e-07, cumulative = -3.2459159e-05
ExecutionTime = 12.980073 s  ClockTime = 13 s

Time = 59s

smoothSolver:  Solving for Ux, Initial residual = 0.0011765474, Final residual = 4.0576868e-05, No Iterations 3
smoothSolver:  Solving for Uy, Initial residual = 0.013377017, Final residual = 0.00046401188, No Iterations 3
smoothSolver:  Solving for Uz, Initial residual = 0.0019361818, Final residual = 6.7298555e-05, No Iterations 3
GAMG:  Solving for p, Initial residual = 0.013505851, Final residual = 0.00013096792, No Iterations 3
time step continuity errors : sum local = 1.4796177e-05, global = 1.2764289e-07, cumulative = -3.2331516e-05
ExecutionTime = 13.180914 s  ClockTime = 13 s

Time = 60s

smoothSolver:  Solving for Ux, Initial residual = 0.0011612303, Final residual = 4.0063032e-05, No Iterations 3
smoothSolver:  Solving for Uy, Initial residual = 0.013108841, Final residual = 0.00045505316, No Iterations 3
smoothSolver:  Solving for Uz, Initial residual = 0.0019085824, Final residual = 6.6368386e-05, No Iterations 3
GAMG:  Solving for p, Initial residual = 0.013321935, Final residual = 0.00012207399, No Iterations 3
time step continuity errors : sum local = 1.3809233e-05, global = 1.0786299e-07, cumulative = -3.2223653e-05
ExecutionTime = 13.381091 s  ClockTime = 13 s

Time = 61s

smoothSolver:  Solving for Ux, Initial residual = 0.0011468021, Final residual = 3.9583039e-05, No Iterations 3
smoothSolver:  Solving for Uy, Initial residual = 0.012847522, Final residual = 0.00044631603, No Iterations 3
smoothSolver:  Solving for Uz, Initial residual = 0.0018823854, Final residual = 6.5492664e-05, No Iterations 3
GAMG:  Solving for p, Initial residual = 0.013129797, Final residual = 0.00010556061, No Iterations 3
time step continuity errors : sum local = 1.1960648e-05, global = 1.0509904e-07, cumulative = -3.2118554e-05
ExecutionTime = 13.582183 s  ClockTime = 14 s

Time = 62s

smoothSolver:  Solving for Ux, Initial residual = 0.0011330686, Final residual = 3.913036e-05, No Iterations 3
smoothSolver:  Solving for Uy, Initial residual = 0.012592429, Final residual = 0.00043777348, No Iterations 3
smoothSolver:  Solving for Uz, Initial residual = 0.0018578469, Final residual = 6.4682043e-05, No Iterations 3
GAMG:  Solving for p, Initial residual = 0.012927728, Final residual = 9.1599016e-05, No Iterations 3
time step continuity errors : sum local = 1.0400378e-05, global = 1.2120182e-07, cumulative = -3.1997352e-05
ExecutionTime = 13.781419 s  ClockTime = 14 s

Time = 63s

smoothSolver:  Solving for Ux, Initial residual = 0.0011198675, Final residual = 3.8697809e-05, No Iterations 3
smoothSolver:  Solving for Uy, Initial residual = 0.012344633, Final residual = 0.00042943982, No Iterations 3
smoothSolver:  Solving for Uz, Initial residual = 0.0018345696, Final residual = 6.3917687e-05, No Iterations 3
GAMG:  Solving for p, Initial residual = 0.012728619, Final residual = 9.1397121e-05, No Iterations 3
time step continuity errors : sum local = 1.0401842e-05, global = 1.4021278e-07, cumulative = -3.1857139e-05
ExecutionTime = 13.984258 s  ClockTime = 14 s

Time = 64s

smoothSolver:  Solving for Ux, Initial residual = 0.0011071208, Final residual = 3.8278746e-05, No Iterations 3
smoothSolver:  Solving for Uy, Initial residual = 0.012107072, Final residual = 0.00042145186, No Iterations 3
smoothSolver:  Solving for Uz, Initial residual = 0.0018120115, Final residual = 6.3175038e-05, No Iterations 3
GAMG:  Solving for p, Initial residual = 0.01253134, Final residual = 9.9347017e-05, No Iterations 3
time step continuity errors : sum local = 1.1332962e-05, global = 1.4618843e-07, cumulative = -3.1710951e-05
ExecutionTime = 14.185829 s  ClockTime = 14 s

Time = 65s

smoothSolver:  Solving for Ux, Initial residual = 0.0010946921, Final residual = 3.786777e-05, No Iterations 3
smoothSolver:  Solving for Uy, Initial residual = 0.011880888, Final residual = 0.00041383523, No Iterations 3
smoothSolver:  Solving for Uz, Initial residual = 0.0017898444, Final residual = 6.2440036e-05, No Iterations 3
GAMG:  Solving for p, Initial residual = 0.012346478, Final residual = 0.00010686241, No Iterations 3
time step continuity errors : sum local = 1.2216345e-05, global = 1.4574911e-07, cumulative = -3.1565202e-05
ExecutionTime = 14.385773 s  ClockTime = 14 s

Time = 66s

smoothSolver:  Solving for Ux, Initial residual = 0.0010826127, Final residual = 3.746529e-05, No Iterations 3
smoothSolver:  Solving for Uy, Initial residual = 0.011664354, Final residual = 0.00040652796, No Iterations 3
smoothSolver:  Solving for Uz, Initial residual = 0.001767968, Final residual = 6.1709507e-05, No Iterations 3
GAMG:  Solving for p, Initial residual = 0.012177847, Final residual = 0.00010967028, No Iterations 3
time step continuity errors : sum local = 1.2561405e-05, global = 1.3995094e-07, cumulative = -3.1425251e-05
ExecutionTime = 14.584983 s  ClockTime = 15 s

Time = 67s

smoothSolver:  Solving for Ux, Initial residual = 0.0010709387, Final residual = 3.7077146e-05, No Iterations 3
smoothSolver:  Solving for Uy, Initial residual = 0.011454589, Final residual = 0.0003994249, No Iterations 3
smoothSolver:  Solving for Uz, Initial residual = 0.0017464331, Final residual = 6.0987614e-05, No Iterations 3
GAMG:  Solving for p, Initial residual = 0.012024618, Final residual = 0.00010780926, No Iterations 3
time step continuity errors : sum local = 1.2370328e-05, global = 1.3152734e-07, cumulative = -3.1293724e-05
ExecutionTime = 14.786287 s  ClockTime = 15 s

Time = 68s

smoothSolver:  Solving for Ux, Initial residual = 0.0010597343, Final residual = 3.6707287e-05, No Iterations 3
smoothSolver:  Solving for Uy, Initial residual = 0.01125032, Final residual = 0.00039245269, No Iterations 3
smoothSolver:  Solving for Uz, Initial residual = 0.0017253575, Final residual = 6.0280582e-05, No Iterations 3
GAMG:  Solving for p, Initial residual = 0.011875313, Final residual = 0.00010282871, No Iterations 3
time step continuity errors : sum local = 1.1819697e-05, global = 1.2276885e-07, cumulative = -3.1170955e-05
ExecutionTime = 14.988702 s  ClockTime = 15 s

Time = 69s

smoothSolver:  Solving for Ux, Initial residual = 0.0010490224, Final residual = 3.6357132e-05, No Iterations 3
smoothSolver:  Solving for Uy, Initial residual = 0.011051156, Final residual = 0.0003855846, No Iterations 3
smoothSolver:  Solving for Uz, Initial residual = 0.0017048323, Final residual = 5.9593345e-05, No Iterations 3
GAMG:  Solving for p, Initial residual = 0.011721477, Final residual = 9.6845694e-05, No Iterations 3
time step continuity errors : sum local = 1.1152299e-05, global = 1.1610011e-07, cumulative = -3.1054855e-05
ExecutionTime = 15.192915 s  ClockTime = 15 s

Time = 70s

smoothSolver:  Solving for Ux, Initial residual = 0.0010388013, Final residual = 3.6024125e-05, No Iterations 3
smoothSolver:  Solving for Uy, Initial residual = 0.010858047, Final residual = 0.00037884623, No Iterations 3
smoothSolver:  Solving for Uz, Initial residual = 0.0016848984, Final residual = 5.8927062e-05, No Iterations 3
GAMG:  Solving for p, Initial residual = 0.011566005, Final residual = 9.2704205e-05, No Iterations 3
time step continuity errors : sum local = 1.0695551e-05, global = 1.1262983e-07, cumulative = -3.0942225e-05
ExecutionTime = 15.394066 s  ClockTime = 15 s

Time = 71s

smoothSolver:  Solving for Ux, Initial residual = 0.0010290569, Final residual = 3.5706536e-05, No Iterations 3
smoothSolver:  Solving for Uy, Initial residual = 0.010670576, Final residual = 0.0003723634, No Iterations 3
smoothSolver:  Solving for Uz, Initial residual = 0.0016655281, Final residual = 5.8279826e-05, No Iterations 3
GAMG:  Solving for p, Initial residual = 0.011417416, Final residual = 9.144672e-05, No Iterations 3
time step continuity errors : sum local = 1.0570708e-05, global = 1.1160033e-07, cumulative = -3.0830625e-05
ExecutionTime = 15.596814 s  ClockTime = 16 s

Time = 72s

smoothSolver:  Solving for Ux, Initial residual = 0.0010197257, Final residual = 3.5403073e-05, No Iterations 3
smoothSolver:  Solving for Uy, Initial residual = 0.010489768, Final residual = 0.00036609984, No Iterations 3
smoothSolver:  Solving for Uz, Initial residual = 0.0016466639, Final residual = 5.764828e-05, No Iterations 3
GAMG:  Solving for p, Initial residual = 0.011278833, Final residual = 9.2129514e-05, No Iterations 3
time step continuity errors : sum local = 1.0669844e-05, global = 1.1491547e-07, cumulative = -3.0715709e-05
ExecutionTime = 15.798476 s  ClockTime = 16 s

Time = 73s

smoothSolver:  Solving for Ux, Initial residual = 0.001010804, Final residual = 3.5112179e-05, No Iterations 3
smoothSolver:  Solving for Uy, Initial residual = 0.010316079, Final residual = 0.0003600707, No Iterations 3
smoothSolver:  Solving for Uz, Initial residual = 0.0016282535, Final residual = 5.7030528e-05, No Iterations 3
GAMG:  Solving for p, Initial residual = 0.011143913, Final residual = 9.3055314e-05, No Iterations 3
time step continuity errors : sum local = 1.0796937e-05, global = 1.2135922e-07, cumulative = -3.059435e-05
ExecutionTime = 15.999925 s  ClockTime = 16 s

Time = 74s

smoothSolver:  Solving for Ux, Initial residual = 0.0010022765, Final residual = 3.4833713e-05, No Iterations 3
smoothSolver:  Solving for Uy, Initial residual = 0.010149492, Final residual = 0.00035429676, No Iterations 3
smoothSolver:  Solving for Uz, Initial residual = 0.0016102815, Final residual = 5.6426504e-05, No Iterations 3
GAMG:  Solving for p, Initial residual = 0.011013658, Final residual = 9.3167244e-05, No Iterations 3
time step continuity errors : sum local = 1.0829309e-05, global = 1.2327617e-07, cumulative = -3.0471074e-05
ExecutionTime = 16.198456 s  ClockTime = 16 s

Time = 75s

smoothSolver:  Solving for Ux, Initial residual = 0.000994166, Final residual = 3.4568372e-05, No Iterations 3
smoothSolver:  Solving for Uy, Initial residual = 0.0099890313, Final residual = 0.00034879286, No Iterations 3
smoothSolver:  Solving for Uz, Initial residual = 0.0015927383, Final residual = 5.5836166e-05, No Iterations 3
GAMG:  Solving for p, Initial residual = 0.010892836, Final residual = 9.2173052e-05, No Iterations 3
time step continuity errors : sum local = 1.0732628e-05, global = 1.2494945e-07, cumulative = -3.0346124e-05
ExecutionTime = 16.399544 s  ClockTime = 16 s

Time = 76s

smoothSolver:  Solving for Ux, Initial residual = 0.00098652143, Final residual = 3.4318112e-05, No Iterations 3
smoothSolver:  Solving for Uy, Initial residual = 0.0098341341, Final residual = 0.00034348667, No Iterations 3
smoothSolver:  Solving for Uz, Initial residual = 0.0015756187, Final residual = 5.5259591e-05, No Iterations 3
GAMG:  Solving for p, Initial residual = 0.010782177, Final residual = 9.0316339e-05, No Iterations 3
time step continuity errors : sum local = 1.0534861e-05, global = 1.2503722e-07, cumulative = -3.0221087e-05
ExecutionTime = 16.601191 s  ClockTime = 17 s

Time = 77s

smoothSolver:  Solving for Ux, Initial residual = 0.00097937909, Final residual = 3.4084155e-05, No Iterations 3
smoothSolver:  Solving for Uy, Initial residual = 0.0096841221, Final residual = 0.00033834569, No Iterations 3
smoothSolver:  Solving for Uz, Initial residual = 0.0015589124, Final residual = 5.4696524e-05, No Iterations 3
GAMG:  Solving for p, Initial residual = 0.010667955, Final residual = 8.8157382e-05, No Iterations 3
time step continuity errors : sum local = 1.0301032e-05, global = 1.2300672e-07, cumulative = -3.009808e-05
ExecutionTime = 16.80295 s  ClockTime = 17 s

Time = 78s

smoothSolver:  Solving for Ux, Initial residual = 0.00097272081, Final residual = 3.3866433e-05, No Iterations 3
smoothSolver:  Solving for Uy, Initial residual = 0.0095385634, Final residual = 0.00033339792, No Iterations 3
smoothSolver:  Solving for Uz, Initial residual = 0.0015425946, Final residual = 5.4146519e-05, No Iterations 3
GAMG:  Solving for p, Initial residual = 0.0105581, Final residual = 8.6218982e-05, No Iterations 3
time step continuity errors : sum local = 1.0092133e-05, global = 1.2016274e-07, cumulative = -2.9977918e-05
ExecutionTime = 17.016871 s  ClockTime = 17 s

Time = 79s

smoothSolver:  Solving for Ux, Initial residual = 0.00096651519, Final residual = 3.3663314e-05, No Iterations 3
smoothSolver:  Solving for Uy, Initial residual = 0.0093985659, Final residual = 0.00032861109, No Iterations 3
smoothSolver:  Solving for Uz, Initial residual = 0.0015266382, Final residual = 5.3608085e-05, No Iterations 3
GAMG:  Solving for p, Initial residual = 0.01045938, Final residual = 8.4787247e-05, No Iterations 3
time step continuity errors : sum local = 9.9417642e-06, global = 1.1637251e-07, cumulative = -2.9861545e-05
ExecutionTime = 17.215876 s  ClockTime = 17 s

Time = 80s

smoothSolver:  Solving for Ux, Initial residual = 0.0009607181, Final residual = 3.3473948e-05, No Iterations 3
smoothSolver:  Solving for Uy, Initial residual = 0.0092630123, Final residual = 0.00032395418, No Iterations 3
smoothSolver:  Solving for Uz, Initial residual = 0.0015110225, Final residual = 5.3079686e-05, No Iterations 3
GAMG:  Solving for p, Initial residual = 0.010364015, Final residual = 8.3828326e-05, No Iterations 3
time step continuity errors : sum local = 9.8461819e-06, global = 1.1359464e-07, cumulative = -2.974795e-05
ExecutionTime = 17.419396 s  ClockTime = 18 s

Time = 81s

smoothSolver:  Solving for Ux, Initial residual = 0.00095530999, Final residual = 3.329677e-05, No Iterations 3
smoothSolver:  Solving for Uy, Initial residual = 0.0091313092, Final residual = 0.00031947491, No Iterations 3
smoothSolver:  Solving for Uz, Initial residual = 0.0014957407, Final residual = 5.2562064e-05, No Iterations 3
GAMG:  Solving for p, Initial residual = 0.010270661, Final residual = 8.3157243e-05, No Iterations 3
time step continuity errors : sum local = 9.7839809e-06, global = 1.1190154e-07, cumulative = -2.9636049e-05
ExecutionTime = 17.620885 s  ClockTime = 18 s

Time = 82s

smoothSolver:  Solving for Ux, Initial residual = 0.00095028997, Final residual = 3.3132486e-05, No Iterations 3
smoothSolver:  Solving for Uy, Initial residual = 0.0090029752, Final residual = 0.00031509802, No Iterations 3
smoothSolver:  Solving for Uz, Initial residual = 0.0014808018, Final residual = 5.2055362e-05, No Iterations 3
GAMG:  Solving for p, Initial residual = 0.010176965, Final residual = 8.2478878e-05, No Iterations 3
time step continuity errors : sum local = 9.7206133e-06, global = 1.1063222e-07, cumulative = -2.9525417e-05
ExecutionTime = 17.822905 s  ClockTime = 18 s

Time = 83s

smoothSolver:  Solving for Ux, Initial residual = 0.0009456726, Final residual = 3.2982673e-05, No Iterations 3
smoothSolver:  Solving for Uy, Initial residual = 0.0088782607, Final residual = 0.00031085903, No Iterations 3
smoothSolver:  Solving for Uz, Initial residual = 0.0014662057, Final residual = 5.156024e-05, No Iterations 3
GAMG:  Solving for p, Initial residual = 0.010076439, Final residual = 8.1633e-05, No Iterations 3
time step continuity errors : sum local = 9.6370798e-06, global = 1.1199877e-07, cumulative = -2.9413418e-05
ExecutionTime = 18.022387 s  ClockTime = 18 s

Time = 84s

smoothSolver:  Solving for Ux, Initial residual = 0.00094144767, Final residual = 3.2845683e-05, No Iterations 3
smoothSolver:  Solving for Uy, Initial residual = 0.008757423, Final residual = 0.00030675549, No Iterations 3
smoothSolver:  Solving for Uz, Initial residual = 0.0014519526, Final residual = 5.1076299e-05, No Iterations 3
GAMG:  Solving for p, Initial residual = 0.0099767669, Final residual = 8.0634177e-05, No Iterations 3
time step continuity errors : sum local = 9.5349787e-06, global = 1.1332292e-07, cumulative = -2.9300095e-05
ExecutionTime = 18.225641 s  ClockTime = 18 s

Time = 85s

smoothSolver:  Solving for Ux, Initial residual = 0.00093756477, Final residual = 3.2718951e-05, No Iterations 3
smoothSolver:  Solving for Uy, Initial residual = 0.0086413939, Final residual = 0.00030278506, No Iterations 3
smoothSolver:  Solving for Uz, Initial residual = 0.0014380339, Final residual = 5.0603195e-05, No Iterations 3
GAMG:  Solving for p, Initial residual = 0.0098862613, Final residual = 7.9637637e-05, No Iterations 3
time step continuity errors : sum local = 9.4325774e-06, global = 1.1445904e-07, cumulative = -2.9185636e-05
ExecutionTime = 18.43014 s  ClockTime = 19 s

Time = 86s

smoothSolver:  Solving for Ux, Initial residual = 0.0009339638, Final residual = 3.2601046e-05, No Iterations 3
smoothSolver:  Solving for Uy, Initial residual = 0.0085291073, Final residual = 0.00029890131, No Iterations 3
smoothSolver:  Solving for Uz, Initial residual = 0.001424435, Final residual = 5.014076e-05, No Iterations 3
GAMG:  Solving for p, Initial residual = 0.0097929435, Final residual = 7.849612e-05, No Iterations 3
time step continuity errors : sum local = 9.3124139e-06, global = 1.1684135e-07, cumulative = -2.9068795e-05
ExecutionTime = 18.633604 s  ClockTime = 19 s

Time = 87s

smoothSolver:  Solving for Ux, Initial residual = 0.00093058174, Final residual = 3.2491044e-05, No Iterations 3
smoothSolver:  Solving for Uy, Initial residual = 0.0084200349, Final residual = 0.00029508924, No Iterations 3
smoothSolver:  Solving for Uz, Initial residual = 0.0014111294, Final residual = 4.9688348e-05, No Iterations 3
GAMG:  Solving for p, Initial residual = 0.0097056473, Final residual = 7.7690743e-05, No Iterations 3
time step continuity errors : sum local = 9.2316215e-06, global = 1.1428455e-07, cumulative = -2.895451e-05
ExecutionTime = 18.834499 s  ClockTime = 19 s

Time = 88s

smoothSolver:  Solving for Ux, Initial residual = 0.00092739755, Final residual = 3.2387769e-05, No Iterations 3
smoothSolver:  Solving for Uy, Initial residual = 0.0083143026, Final residual = 0.00029134637, No Iterations 3
smoothSolver:  Solving for Uz, Initial residual = 0.0013981151, Final residual = 4.9245651e-05, No Iterations 3
GAMG:  Solving for p, Initial residual = 0.0096253449, Final residual = 7.6665801e-05, No Iterations 3
time step continuity errors : sum local = 9.1242875e-06, global = 1.1609759e-07, cumulative = -2.8838412e-05
ExecutionTime = 19.03527 s  ClockTime = 19 s

Time = 89s

smoothSolver:  Solving for Ux, Initial residual = 0.00092440503, Final residual = 3.2291275e-05, No Iterations 3
smoothSolver:  Solving for Uy, Initial residual = 0.008212111, Final residual = 0.00028770731, No Iterations 3
smoothSolver:  Solving for Uz, Initial residual = 0.0013853884, Final residual = 4.8812177e-05, No Iterations 3
GAMG:  Solving for p, Initial residual = 0.0095445019, Final residual = 7.5968524e-05, No Iterations 3
time step continuity errors : sum local = 9.0555245e-06, global = 1.1591491e-07, cumulative = -2.8722497e-05
ExecutionTime = 19.234666 s  ClockTime = 19 s

Time = 90s

smoothSolver:  Solving for Ux, Initial residual = 0.00092162264, Final residual = 3.2201059e-05, No Iterations 3
smoothSolver:  Solving for Uy, Initial residual = 0.0081137385, Final residual = 0.00028417476, No Iterations 3
smoothSolver:  Solving for Uz, Initial residual = 0.0013729352, Final residual = 4.8388243e-05, No Iterations 3
GAMG:  Solving for p, Initial residual = 0.0094705867, Final residual = 7.5707581e-05, No Iterations 3
time step continuity errors : sum local = 9.0386174e-06, global = 1.1328686e-07, cumulative = -2.8609211e-05
ExecutionTime = 19.435463 s  ClockTime = 20 s

Time = 91s

smoothSolver:  Solving for Ux, Initial residual = 0.00091902186, Final residual = 3.2116227e-05, No Iterations 3
smoothSolver:  Solving for Uy, Initial residual = 0.0080187335, Final residual = 0.00028076412, No Iterations 3
smoothSolver:  Solving for Uz, Initial residual = 0.0013607458, Final residual = 4.7973637e-05, No Iterations 3
GAMG:  Solving for p, Initial residual = 0.0093982663, Final residual = 7.5240505e-05, No Iterations 3
time step continuity errors : sum local = 8.9969915e-06, global = 1.1243515e-07, cumulative = -2.8496775e-05
ExecutionTime = 19.637556 s  ClockTime = 20 s

Time = 92s

smoothSolver:  Solving for Ux, Initial residual = 0.00091657599, Final residual = 3.2036111e-05, No Iterations 3
smoothSolver:  Solving for Uy, Initial residual = 0.0079258769, Final residual = 0.00027740986, No Iterations 3
smoothSolver:  Solving for Uz, Initial residual = 0.0013488135, Final residual = 4.7567942e-05, No Iterations 3
GAMG:  Solving for p, Initial residual = 0.0093285856, Final residual = 7.4829531e-05, No Iterations 3
time step continuity errors : sum local = 8.9618224e-06, global = 1.1166514e-07, cumulative = -2.838511e-05
ExecutionTime = 19.837816 s  ClockTime = 20 s

Time = 93s

smoothSolver:  Solving for Ux, Initial residual = 0.00091424826, Final residual = 3.1959669e-05, No Iterations 3
smoothSolver:  Solving for Uy, Initial residual = 0.0078350169, Final residual = 0.00027411308, No Iterations 3
smoothSolver:  Solving for Uz, Initial residual = 0.0013371301, Final residual = 4.7170677e-05, No Iterations 3
GAMG:  Solving for p, Initial residual = 0.0092609961, Final residual = 7.439089e-05, No Iterations 3
time step continuity errors : sum local = 8.9230636e-06, global = 1.1125075e-07, cumulative = -2.827386e-05
ExecutionTime = 20.045098 s  ClockTime = 20 s

Time = 94s

smoothSolver:  Solving for Ux, Initial residual = 0.00091202364, Final residual = 3.1885909e-05, No Iterations 3
smoothSolver:  Solving for Uy, Initial residual = 0.0077455644, Final residual = 0.00027088581, No Iterations 3
smoothSolver:  Solving for Uz, Initial residual = 0.0013257003, Final residual = 4.6782047e-05, No Iterations 3
GAMG:  Solving for p, Initial residual = 0.009198994, Final residual = 7.3788143e-05, No Iterations 3
time step continuity errors : sum local = 8.8643795e-06, global = 1.1018568e-07, cumulative = -2.8163674e-05
ExecutionTime = 20.247266 s  ClockTime = 20 s

Time = 95s

smoothSolver:  Solving for Ux, Initial residual = 0.00090989146, Final residual = 3.1814206e-05, No Iterations 3
smoothSolver:  Solving for Uy, Initial residual = 0.0076574575, Final residual = 0.00026769475, No Iterations 3
smoothSolver:  Solving for Uz, Initial residual = 0.0013145073, Final residual = 4.6401343e-05, No Iterations 3
GAMG:  Solving for p, Initial residual = 0.0091321121, Final residual = 7.3154786e-05, No Iterations 3
time step continuity errors : sum local = 8.8015827e-06, global = 1.0894113e-07, cumulative = -2.8054733e-05
ExecutionTime = 20.449504 s  ClockTime = 21 s

Time = 96s

smoothSolver:  Solving for Ux, Initial residual = 0.00090783243, Final residual = 3.1743837e-05, No Iterations 3
smoothSolver:  Solving for Uy, Initial residual = 0.0075694132, Final residual = 0.00026454595, No Iterations 3
smoothSolver:  Solving for Uz, Initial residual = 0.0013035314, Final residual = 4.6028045e-05, No Iterations 3
GAMG:  Solving for p, Initial residual = 0.0090668035, Final residual = 7.2336882e-05, No Iterations 3
time step continuity errors : sum local = 8.716218e-06, global = 1.1217712e-07, cumulative = -2.7942556e-05
ExecutionTime = 20.650076 s  ClockTime = 21 s

Time = 97s

smoothSolver:  Solving for Ux, Initial residual = 0.00090587111, Final residual = 3.1675893e-05, No Iterations 3
smoothSolver:  Solving for Uy, Initial residual = 0.0074825833, Final residual = 0.00026143421, No Iterations 3
smoothSolver:  Solving for Uz, Initial residual = 0.0012927697, Final residual = 4.5662813e-05, No Iterations 3
GAMG:  Solving for p, Initial residual = 0.0090089887, Final residual = 7.1890023e-05, No Iterations 3
time step continuity errors : sum local = 8.6753238e-06, global = 1.1266979e-07, cumulative = -2.7829886e-05
ExecutionTime = 20.84828 s  ClockTime = 21 s

Time = 98s

smoothSolver:  Solving for Ux, Initial residual = 0.00090403262, Final residual = 3.161194e-05, No Iterations 3
smoothSolver:  Solving for Uy, Initial residual = 0.0073991275, Final residual = 0.00025840251, No Iterations 3
smoothSolver:  Solving for Uz, Initial residual = 0.0012822343, Final residual = 4.5306158e-05, No Iterations 3
GAMG:  Solving for p, Initial residual = 0.0089477697, Final residual = 7.1507047e-05, No Iterations 3
time step continuity errors : sum local = 8.6419156e-06, global = 1.1320622e-07, cumulative = -2.771668e-05
ExecutionTime = 21.047536 s  ClockTime = 21 s

Time = 99s

smoothSolver:  Solving for Ux, Initial residual = 0.00090233666, Final residual = 3.1551865e-05, No Iterations 3
smoothSolver:  Solving for Uy, Initial residual = 0.0073187665, Final residual = 0.00025546877, No Iterations 3
smoothSolver:  Solving for Uz, Initial residual = 0.001271933, Final residual = 4.4957994e-05, No Iterations 3
GAMG:  Solving for p, Initial residual = 0.0088941035, Final residual = 7.1133801e-05, No Iterations 3
time step continuity errors : sum local = 8.6094998e-06, global = 1.1306155e-07, cumulative = -2.7603618e-05
ExecutionTime = 21.248388 s  ClockTime = 21 s

Time = 100s

smoothSolver:  Solving for Ux, Initial residual = 0.00090077162, Final residual = 3.1495418e-05, No Iterations 3
smoothSolver:  Solving for Uy, Initial residual = 0.0072423975, Final residual = 0.00025265179, No Iterations 3
smoothSolver:  Solving for Uz, Initial residual = 0.001261858, Final residual = 4.4618106e-05, No Iterations 3
GAMG:  Solving for p, Initial residual = 0.0088458105, Final residual = 7.0845803e-05, No Iterations 3
time step continuity errors : sum local = 8.5872315e-06, global = 1.1243851e-07, cumulative = -2.749118e-05
ExecutionTime = 21.446442 s  ClockTime = 22 s

Time = 101s

smoothSolver:  Solving for Ux, Initial residual = 0.00089930455, Final residual = 3.1442465e-05, No Iterations 3
smoothSolver:  Solving for Uy, Initial residual = 0.0071674531, Final residual = 0.00024992761, No Iterations 3
smoothSolver:  Solving for Uz, Initial residual = 0.0012519993, Final residual = 4.4287126e-05, No Iterations 3
GAMG:  Solving for p, Initial residual = 0.0087967983, Final residual = 7.0508752e-05, No Iterations 3
time step continuity errors : sum local = 8.558815e-06, global = 1.111301e-07, cumulative = -2.7380049e-05
ExecutionTime = 21.646213 s  ClockTime = 22 s

Time = 102s

smoothSolver:  Solving for Ux, Initial residual = 0.0008979035, Final residual = 3.1390222e-05, No Iterations 3
smoothSolver:  Solving for Uy, Initial residual = 0.0070933462, Final residual = 0.00024725277, No Iterations 3
smoothSolver:  Solving for Uz, Initial residual = 0.0012423458, Final residual = 4.3963194e-05, No Iterations 3
GAMG:  Solving for p, Initial residual = 0.0087460901, Final residual = 7.0127298e-05, No Iterations 3
time step continuity errors : sum local = 8.5247902e-06, global = 1.0956847e-07, cumulative = -2.7270481e-05
ExecutionTime = 21.846481 s  ClockTime = 22 s

Time = 103s

smoothSolver:  Solving for Ux, Initial residual = 0.0008965481, Final residual = 3.1338778e-05, No Iterations 3
smoothSolver:  Solving for Uy, Initial residual = 0.0070198795, Final residual = 0.00024461897, No Iterations 3
smoothSolver:  Solving for Uz, Initial residual = 0.0012328807, Final residual = 4.3645516e-05, No Iterations 3
GAMG:  Solving for p, Initial residual = 0.0086933409, Final residual = 6.9852572e-05, No Iterations 3
time step continuity errors : sum local = 8.5035595e-06, global = 1.0828953e-07, cumulative = -2.7162191e-05
ExecutionTime = 22.055864 s  ClockTime = 22 s

Time = 104s

smoothSolver:  Solving for Ux, Initial residual = 0.00089521926, Final residual = 3.128804e-05, No Iterations 3
smoothSolver:  Solving for Uy, Initial residual = 0.006947454, Final residual = 0.00024203086, No Iterations 3
smoothSolver:  Solving for Uz, Initial residual = 0.0012235832, Final residual = 4.3332957e-05, No Iterations 3
GAMG:  Solving for p, Initial residual = 0.0086417342, Final residual = 6.9447714e-05, No Iterations 3
time step continuity errors : sum local = 8.4663009e-06, global = 1.1305953e-07, cumulative = -2.7049132e-05
ExecutionTime = 22.277199 s  ClockTime = 22 s

Time = 105s

smoothSolver:  Solving for Ux, Initial residual = 0.00089393372, Final residual = 3.1238502e-05, No Iterations 3
smoothSolver:  Solving for Uy, Initial residual = 0.0068758045, Final residual = 0.00023946741, No Iterations 3
smoothSolver:  Solving for Uz, Initial residual = 0.0012144363, Final residual = 4.3024865e-05, No Iterations 3
GAMG:  Solving for p, Initial residual = 0.0085973287, Final residual = 6.9632478e-05, No Iterations 3
time step continuity errors : sum local = 8.5008583e-06, global = 1.1204225e-07, cumulative = -2.693709e-05
ExecutionTime = 22.479598 s  ClockTime = 23 s

Time = 106s

smoothSolver:  Solving for Ux, Initial residual = 0.00089267868, Final residual = 3.1189653e-05, No Iterations 3
smoothSolver:  Solving for Uy, Initial residual = 0.0068053245, Final residual = 0.00023695363, No Iterations 3
smoothSolver:  Solving for Uz, Initial residual = 0.0012054436, Final residual = 4.2721196e-05, No Iterations 3
GAMG:  Solving for p, Initial residual = 0.0085576413, Final residual = 6.9841203e-05, No Iterations 3
time step continuity errors : sum local = 8.5383257e-06, global = 1.1085727e-07, cumulative = -2.6826232e-05
ExecutionTime = 22.680918 s  ClockTime = 23 s

Time = 107s

smoothSolver:  Solving for Ux, Initial residual = 0.00089147301, Final residual = 3.11422e-05, No Iterations 3
smoothSolver:  Solving for Uy, Initial residual = 0.006736224, Final residual = 0.0002344802, No Iterations 3
smoothSolver:  Solving for Uz, Initial residual = 0.0011966053, Final residual = 4.2422818e-05, No Iterations 3
GAMG:  Solving for p, Initial residual = 0.0085250249, Final residual = 6.992217e-05, No Iterations 3
time step continuity errors : sum local = 8.5601616e-06, global = 1.0960942e-07, cumulative = -2.6716623e-05
ExecutionTime = 22.882226 s  ClockTime = 23 s

Time = 108s

smoothSolver:  Solving for Ux, Initial residual = 0.00089033554, Final residual = 3.109606e-05, No Iterations 3
smoothSolver:  Solving for Uy, Initial residual = 0.00666979, Final residual = 0.00023208301, No Iterations 3
smoothSolver:  Solving for Uz, Initial residual = 0.001187957, Final residual = 4.2130027e-05, No Iterations 3
GAMG:  Solving for p, Initial residual = 0.00848632, Final residual = 6.9751015e-05, No Iterations 3
time step continuity errors : sum local = 8.5510391e-06, global = 1.0805838e-07, cumulative = -2.6608565e-05
ExecutionTime = 23.082507 s  ClockTime = 23 s

Time = 109s

smoothSolver:  Solving for Ux, Initial residual = 0.00088927273, Final residual = 3.1051412e-05, No Iterations 3
smoothSolver:  Solving for Uy, Initial residual = 0.0066056072, Final residual = 0.00022978856, No Iterations 3
smoothSolver:  Solving for Uz, Initial residual = 0.0011794935, Final residual = 4.1842487e-05, No Iterations 3
GAMG:  Solving for p, Initial residual = 0.0084442245, Final residual = 6.94842e-05, No Iterations 3
time step continuity errors : sum local = 8.5300876e-06, global = 1.0615294e-07, cumulative = -2.6502412e-05
ExecutionTime = 23.283693 s  ClockTime = 23 s

Time = 110s

smoothSolver:  Solving for Ux, Initial residual = 0.00088828512, Final residual = 3.1010876e-05, No Iterations 3
smoothSolver:  Solving for Uy, Initial residual = 0.0065431802, Final residual = 0.00022756094, No Iterations 3
smoothSolver:  Solving for Uz, Initial residual = 0.0011712125, Final residual = 4.1561371e-05, No Iterations 3
GAMG:  Solving for p, Initial residual = 0.0084058597, Final residual = 6.9288939e-05, No Iterations 3
time step continuity errors : sum local = 8.5178196e-06, global = 1.0414865e-07, cumulative = -2.6398263e-05
ExecutionTime = 23.487116 s  ClockTime = 24 s

Time = 111s

smoothSolver:  Solving for Ux, Initial residual = 0.00088736181, Final residual = 3.0972929e-05, No Iterations 3
smoothSolver:  Solving for Uy, Initial residual = 0.006482249, Final residual = 0.00022539587, No Iterations 3
smoothSolver:  Solving for Uz, Initial residual = 0.001163105, Final residual = 4.1286433e-05, No Iterations 3
GAMG:  Solving for p, Initial residual = 0.0083689464, Final residual = 6.9132399e-05, No Iterations 3
time step continuity errors : sum local = 8.5102413e-06, global = 1.0224309e-07, cumulative = -2.629602e-05
ExecutionTime = 23.687816 s  ClockTime = 24 s

Time = 112s

smoothSolver:  Solving for Ux, Initial residual = 0.00088649743, Final residual = 3.0936999e-05, No Iterations 3
smoothSolver:  Solving for Uy, Initial residual = 0.0064224767, Final residual = 0.00022327586, No Iterations 3
smoothSolver:  Solving for Uz, Initial residual = 0.00115515, Final residual = 4.1016631e-05, No Iterations 3
GAMG:  Solving for p, Initial residual = 0.0083356895, Final residual = 6.8963194e-05, No Iterations 3
time step continuity errors : sum local = 8.5011156e-06, global = 1.0055361e-07, cumulative = -2.6195466e-05
ExecutionTime = 23.886635 s  ClockTime = 24 s

Time = 113s

smoothSolver:  Solving for Ux, Initial residual = 0.00088568591, Final residual = 3.0901573e-05, No Iterations 3
smoothSolver:  Solving for Uy, Initial residual = 0.0063633437, Final residual = 0.00022118296, No Iterations 3
smoothSolver:  Solving for Uz, Initial residual = 0.0011473323, Final residual = 4.075133e-05, No Iterations 3
GAMG:  Solving for p, Initial residual = 0.0083083159, Final residual = 6.8691807e-05, No Iterations 3
time step continuity errors : sum local = 8.4793549e-06, global = 9.9224906e-08, cumulative = -2.6096241e-05
ExecutionTime = 24.088457 s  ClockTime = 24 s

Time = 114s

smoothSolver:  Solving for Ux, Initial residual = 0.00088487995, Final residual = 3.0867751e-05, No Iterations 3
smoothSolver:  Solving for Uy, Initial residual = 0.0063043069, Final residual = 0.00021909973, No Iterations 3
smoothSolver:  Solving for Uz, Initial residual = 0.0011396323, Final residual = 4.0490409e-05, No Iterations 3
GAMG:  Solving for p, Initial residual = 0.0082785493, Final residual = 6.8368776e-05, No Iterations 3
time step continuity errors : sum local = 8.4509756e-06, global = 9.8036507e-08, cumulative = -2.5998205e-05
ExecutionTime = 24.293165 s  ClockTime = 24 s

Time = 115s

smoothSolver:  Solving for Ux, Initial residual = 0.00088404461, Final residual = 3.0834431e-05, No Iterations 3
smoothSolver:  Solving for Uy, Initial residual = 0.0062447256, Final residual = 0.000217001, No Iterations 3
smoothSolver:  Solving for Uz, Initial residual = 0.0011320432, Final residual = 4.0233678e-05, No Iterations 3
GAMG:  Solving for p, Initial residual = 0.008246652, Final residual = 6.7998317e-05, No Iterations 3
time step continuity errors : sum local = 8.4166383e-06, global = 9.7048736e-08, cumulative = -2.5901156e-05
ExecutionTime = 24.497302 s  ClockTime = 25 s

Time = 116s

smoothSolver:  Solving for Ux, Initial residual = 0.00088317804, Final residual = 3.0800439e-05, No Iterations 3
smoothSolver:  Solving for Uy, Initial residual = 0.0061846462, Final residual = 0.00021484793, No Iterations 3
smoothSolver:  Solving for Uz, Initial residual = 0.0011245546, Final residual = 3.9980013e-05, No Iterations 3
GAMG:  Solving for p, Initial residual = 0.0082008195, Final residual = 6.7416752e-05, No Iterations 3
time step continuity errors : sum local = 8.3559791e-06, global = 9.5915061e-08, cumulative = -2.5805241e-05
ExecutionTime = 24.698395 s  ClockTime = 25 s

Time = 117s

smoothSolver:  Solving for Ux, Initial residual = 0.00088227381, Final residual = 3.0766037e-05, No Iterations 3
smoothSolver:  Solving for Uy, Initial residual = 0.0061239919, Final residual = 0.00021264946, No Iterations 3
smoothSolver:  Solving for Uz, Initial residual = 0.0011171521, Final residual = 3.9728691e-05, No Iterations 3
GAMG:  Solving for p, Initial residual = 0.0081493554, Final residual = 6.6881484e-05, No Iterations 3
time step continuity errors : sum local = 8.3007031e-06, global = 9.501864e-08, cumulative = -2.5710222e-05
ExecutionTime = 24.901017 s  ClockTime = 25 s

Time = 118s

smoothSolver:  Solving for Ux, Initial residual = 0.00088134404, Final residual = 3.0732764e-05, No Iterations 3
smoothSolver:  Solving for Uy, Initial residual = 0.0060628045, Final residual = 0.00021044534, No Iterations 3
smoothSolver:  Solving for Uz, Initial residual = 0.0011098344, Final residual = 3.9480928e-05, No Iterations 3
GAMG:  Solving for p, Initial residual = 0.0081028503, Final residual = 6.6565536e-05, No Iterations 3
time step continuity errors : sum local = 8.2724201e-06, global = 9.3999492e-08, cumulative = -2.5616223e-05
ExecutionTime = 25.100439 s  ClockTime = 25 s

Time = 119s

smoothSolver:  Solving for Ux, Initial residual = 0.00088043479, Final residual = 3.0701375e-05, No Iterations 3
smoothSolver:  Solving for Uy, Initial residual = 0.0060036387, Final residual = 0.00020829514, No Iterations 3
smoothSolver:  Solving for Uz, Initial residual = 0.0011026149, Final residual = 3.9236857e-05, No Iterations 3
GAMG:  Solving for p, Initial residual = 0.0080617395, Final residual = 6.6426199e-05, No Iterations 3
time step continuity errors : sum local = 8.2659523e-06, global = 9.3089714e-08, cumulative = -2.5523133e-05
ExecutionTime = 25.302225 s  ClockTime = 25 s

Time = 120s

smoothSolver:  Solving for Ux, Initial residual = 0.00087957154, Final residual = 3.0671836e-05, No Iterations 3
smoothSolver:  Solving for Uy, Initial residual = 0.0059463784, Final residual = 0.00020622858, No Iterations 3
smoothSolver:  Solving for Uz, Initial residual = 0.0010955198, Final residual = 3.8996509e-05, No Iterations 3
GAMG:  Solving for p, Initial residual = 0.008026685, Final residual = 6.6279551e-05, No Iterations 3
time step continuity errors : sum local = 8.2584788e-06, global = 9.1970031e-08, cumulative = -2.5431163e-05
ExecutionTime = 25.504078 s  ClockTime = 26 s

Time = 121s

smoothSolver:  Solving for Ux, Initial residual = 0.00087876045, Final residual = 3.0643674e-05, No Iterations 3
smoothSolver:  Solving for Uy, Initial residual = 0.0058913498, Final residual = 0.00020424887, No Iterations 3
smoothSolver:  Solving for Uz, Initial residual = 0.0010885576, Final residual = 3.8760398e-05, No Iterations 3
GAMG:  Solving for p, Initial residual = 0.0079937123, Final residual = 6.6103362e-05, No Iterations 3
time step continuity errors : sum local = 8.2472369e-06, global = 9.0377137e-08, cumulative = -2.5340786e-05
ExecutionTime = 25.705184 s  ClockTime = 26 s

Time = 122s

smoothSolver:  Solving for Ux, Initial residual = 0.00087799392, Final residual = 3.0617383e-05, No Iterations 3
smoothSolver:  Solving for Uy, Initial residual = 0.0058381622, Final residual = 0.00020232262, No Iterations 3
smoothSolver:  Solving for Uz, Initial residual = 0.0010817209, Final residual = 3.852861e-05, No Iterations 3
GAMG:  Solving for p, Initial residual = 0.0079592845, Final residual = 6.597721e-05, No Iterations 3
time step continuity errors : sum local = 8.2421639e-06, global = 8.8949638e-08, cumulative = -2.5251836e-05
ExecutionTime = 25.905871 s  ClockTime = 26 s

Time = 123s

smoothSolver:  Solving for Ux, Initial residual = 0.0008772422, Final residual = 3.0591529e-05, No Iterations 3
smoothSolver:  Solving for Uy, Initial residual = 0.0057849777, Final residual = 0.00020042696, No Iterations 3
smoothSolver:  Solving for Uz, Initial residual = 0.0010750002, Final residual = 3.8300652e-05, No Iterations 3
GAMG:  Solving for p, Initial residual = 0.0079284625, Final residual = 6.5737033e-05, No Iterations 3
time step continuity errors : sum local = 8.2227615e-06, global = 8.7114998e-08, cumulative = -2.5164721e-05
ExecutionTime = 26.106379 s  ClockTime = 26 s

Time = 124s

smoothSolver:  Solving for Ux, Initial residual = 0.00087649956, Final residual = 3.0565819e-05, No Iterations 3
smoothSolver:  Solving for Uy, Initial residual = 0.0057315685, Final residual = 0.00019851939, No Iterations 3
smoothSolver:  Solving for Uz, Initial residual = 0.001068387, Final residual = 3.8076616e-05, No Iterations 3
GAMG:  Solving for p, Initial residual = 0.0078988618, Final residual = 6.5415899e-05, No Iterations 3
time step continuity errors : sum local = 8.1931865e-06, global = 8.5188501e-08, cumulative = -2.5079533e-05
ExecutionTime = 26.304632 s  ClockTime = 26 s

Time = 125s

smoothSolver:  Solving for Ux, Initial residual = 0.00087579061, Final residual = 3.0540337e-05, No Iterations 3
smoothSolver:  Solving for Uy, Initial residual = 0.0056785961, Final residual = 0.00019663788, No Iterations 3
smoothSolver:  Solving for Uz, Initial residual = 0.0010618785, Final residual = 3.7856375e-05, No Iterations 3
GAMG:  Solving for p, Initial residual = 0.0078737656, Final residual = 6.4952757e-05, No Iterations 3
time step continuity errors : sum local = 8.1457951e-06, global = 8.2924445e-08, cumulative = -2.4996609e-05
ExecutionTime = 26.504117 s  ClockTime = 27 s

Time = 126s

smoothSolver:  Solving for Ux, Initial residual = 0.00087513975, Final residual = 3.0515745e-05, No Iterations 3
smoothSolver:  Solving for Uy, Initial residual = 0.0056266795, Final residual = 0.00019481393, No Iterations 3
smoothSolver:  Solving for Uz, Initial residual = 0.0010554817, Final residual = 3.7639558e-05, No Iterations 3
GAMG:  Solving for p, Initial residual = 0.0078458599, Final residual = 6.4404079e-05, No Iterations 3
time step continuity errors : sum local = 8.0875324e-06, global = 8.1032122e-08, cumulative = -2.4915576e-05
ExecutionTime = 26.704903 s  ClockTime = 27 s

Time = 127s

smoothSolver:  Solving for Ux, Initial residual = 0.00087451277, Final residual = 3.0491703e-05, No Iterations 3
smoothSolver:  Solving for Uy, Initial residual = 0.0055767062, Final residual = 0.00019302623, No Iterations 3
smoothSolver:  Solving for Uz, Initial residual = 0.0010491674, Final residual = 3.7425917e-05, No Iterations 3
GAMG:  Solving for p, Initial residual = 0.0078207043, Final residual = 6.4001083e-05, No Iterations 3
time step continuity errors : sum local = 8.0474427e-06, global = 7.9658091e-08, cumulative = -2.4835918e-05
ExecutionTime = 26.903751 s  ClockTime = 27 s

Time = 128s

smoothSolver:  Solving for Ux, Initial residual = 0.00087385783, Final residual = 3.0467621e-05, No Iterations 3
smoothSolver:  Solving for Uy, Initial residual = 0.0055278931, Final residual = 0.00019124662, No Iterations 3
smoothSolver:  Solving for Uz, Initial residual = 0.0010429234, Final residual = 3.721545e-05, No Iterations 3
GAMG:  Solving for p, Initial residual = 0.0077915009, Final residual = 6.3597624e-05, No Iterations 3
time step continuity errors : sum local = 8.0071586e-06, global = 7.8509387e-08, cumulative = -2.4757409e-05
ExecutionTime = 27.103588 s  ClockTime = 27 s

Time = 129s

smoothSolver:  Solving for Ux, Initial residual = 0.00087316757, Final residual = 3.0441094e-05, No Iterations 3
smoothSolver:  Solving for Uy, Initial residual = 0.0054785795, Final residual = 0.00018943901, No Iterations 3
smoothSolver:  Solving for Uz, Initial residual = 0.0010367529, Final residual = 3.7006567e-05, No Iterations 3
GAMG:  Solving for p, Initial residual = 0.0077659107, Final residual = 6.3403058e-05, No Iterations 3
time step continuity errors : sum local = 7.9930451e-06, global = 7.8074524e-08, cumulative = -2.4679334e-05
ExecutionTime = 27.304564 s  ClockTime = 27 s

Time = 130s

smoothSolver:  Solving for Ux, Initial residual = 0.0008724151, Final residual = 3.041273e-05, No Iterations 3
[...]
GAMG:  Solving for p, Initial residual = 1.1805788e-05, Final residual = 7.6814649e-08, No Iterations 3
time step continuity errors : sum local = 1.1799349e-08, global = -2.8707623e-10, cumulative = -1.1719822e-05
ExecutionTime = 309.20448 s  ClockTime = 312 s

Time = 1529s

smoothSolver:  Solving for Ux, Initial residual = 1.2415643e-06, Final residual = 4.4674943e-08, No Iterations 3
smoothSolver:  Solving for Uy, Initial residual = 1.1469608e-05, Final residual = 4.1216793e-07, No Iterations 3
smoothSolver:  Solving for Uz, Initial residual = 5.4698422e-07, Final residual = 1.9420394e-08, No Iterations 3
GAMG:  Solving for p, Initial residual = 1.1745296e-05, Final residual = 7.6354336e-08, No Iterations 3
time step continuity errors : sum local = 1.1728643e-08, global = -2.9462184e-10, cumulative = -1.1720117e-05
ExecutionTime = 309.4039 s  ClockTime = 312 s

Time = 1530s

smoothSolver:  Solving for Ux, Initial residual = 1.2349025e-06, Final residual = 4.4415917e-08, No Iterations 3
smoothSolver:  Solving for Uy, Initial residual = 1.1409598e-05, Final residual = 4.1016462e-07, No Iterations 3
smoothSolver:  Solving for Uz, Initial residual = 5.4404401e-07, Final residual = 1.9305221e-08, No Iterations 3
GAMG:  Solving for p, Initial residual = 1.168521e-05, Final residual = 7.5899714e-08, No Iterations 3
time step continuity errors : sum local = 1.165881e-08, global = -2.9987404e-10, cumulative = -1.1720417e-05
ExecutionTime = 309.60369 s  ClockTime = 312 s

Time = 1531s

smoothSolver:  Solving for Ux, Initial residual = 1.2282258e-06, Final residual = 4.415199e-08, No Iterations 3
smoothSolver:  Solving for Uy, Initial residual = 1.1350057e-05, Final residual = 4.0817958e-07, No Iterations 3
smoothSolver:  Solving for Uz, Initial residual = 5.4111431e-07, Final residual = 1.9189165e-08, No Iterations 3
GAMG:  Solving for p, Initial residual = 1.1624474e-05, Final residual = 7.5446152e-08, No Iterations 3
time step continuity errors : sum local = 1.158914e-08, global = -3.0916349e-10, cumulative = -1.1720726e-05
ExecutionTime = 309.80186 s  ClockTime = 312 s

Time = 1532s

smoothSolver:  Solving for Ux, Initial residual = 1.2216311e-06, Final residual = 4.3896501e-08, No Iterations 3
smoothSolver:  Solving for Uy, Initial residual = 1.1289953e-05, Final residual = 4.0619476e-07, No Iterations 3
smoothSolver:  Solving for Uz, Initial residual = 5.3828751e-07, Final residual = 1.9072676e-08, No Iterations 3
GAMG:  Solving for p, Initial residual = 1.1563292e-05, Final residual = 7.4967716e-08, No Iterations 3
time step continuity errors : sum local = 1.151565e-08, global = -3.174643e-10, cumulative = -1.1721044e-05
ExecutionTime = 310.00334 s  ClockTime = 313 s

Time = 1533s

smoothSolver:  Solving for Ux, Initial residual = 1.2150713e-06, Final residual = 4.3641551e-08, No Iterations 3
smoothSolver:  Solving for Uy, Initial residual = 1.1230696e-05, Final residual = 4.042967e-07, No Iterations 3
smoothSolver:  Solving for Uz, Initial residual = 5.3551792e-07, Final residual = 1.8958245e-08, No Iterations 3
GAMG:  Solving for p, Initial residual = 1.1502002e-05, Final residual = 7.4484682e-08, No Iterations 3
time step continuity errors : sum local = 1.1441452e-08, global = -3.2386093e-10, cumulative = -1.1721367e-05
ExecutionTime = 310.20217 s  ClockTime = 313 s

Time = 1534s

smoothSolver:  Solving for Ux, Initial residual = 1.2084442e-06, Final residual = 4.3394006e-08, No Iterations 3
smoothSolver:  Solving for Uy, Initial residual = 1.1171629e-05, Final residual = 4.0235345e-07, No Iterations 3
smoothSolver:  Solving for Uz, Initial residual = 5.3273011e-07, Final residual = 1.884359e-08, No Iterations 3
GAMG:  Solving for p, Initial residual = 1.1440304e-05, Final residual = 7.4052886e-08, No Iterations 3
time step continuity errors : sum local = 1.1375126e-08, global = -3.3461413e-10, cumulative = -1.1721702e-05
ExecutionTime = 310.3993 s  ClockTime = 313 s

Time = 1535s

smoothSolver:  Solving for Ux, Initial residual = 1.2018275e-06, Final residual = 4.3143666e-08, No Iterations 3
smoothSolver:  Solving for Uy, Initial residual = 1.1112895e-05, Final residual = 4.0047183e-07, No Iterations 3
smoothSolver:  Solving for Uz, Initial residual = 5.299687e-07, Final residual = 1.8727797e-08, No Iterations 3
GAMG:  Solving for p, Initial residual = 1.1379675e-05, Final residual = 7.363369e-08, No Iterations 3
time step continuity errors : sum local = 1.1310735e-08, global = -3.4550169e-10, cumulative = -1.1722048e-05
ExecutionTime = 310.60113 s  ClockTime = 313 s

Time = 1536s

smoothSolver:  Solving for Ux, Initial residual = 1.1953719e-06, Final residual = 4.2894746e-08, No Iterations 3
smoothSolver:  Solving for Uy, Initial residual = 1.1054241e-05, Final residual = 3.9862802e-07, No Iterations 3
smoothSolver:  Solving for Uz, Initial residual = 5.2716366e-07, Final residual = 1.8610376e-08, No Iterations 3
GAMG:  Solving for p, Initial residual = 1.1319217e-05, Final residual = 7.3259003e-08, No Iterations 3
time step continuity errors : sum local = 1.1253181e-08, global = -3.5622838e-10, cumulative = -1.1722404e-05
ExecutionTime = 310.80118 s  ClockTime = 313 s

Time = 1537s

smoothSolver:  Solving for Ux, Initial residual = 1.1889278e-06, Final residual = 4.2641923e-08, No Iterations 3
smoothSolver:  Solving for Uy, Initial residual = 1.0995247e-05, Final residual = 3.9676852e-07, No Iterations 3
smoothSolver:  Solving for Uz, Initial residual = 5.24355e-07, Final residual = 1.84949e-08, No Iterations 3
GAMG:  Solving for p, Initial residual = 1.1259921e-05, Final residual = 7.2904045e-08, No Iterations 3
time step continuity errors : sum local = 1.1198657e-08, global = -3.6565549e-10, cumulative = -1.1722769e-05
ExecutionTime = 311.00014 s  ClockTime = 314 s

Time = 1538s

smoothSolver:  Solving for Ux, Initial residual = 1.1824678e-06, Final residual = 4.2385014e-08, No Iterations 3
smoothSolver:  Solving for Uy, Initial residual = 1.0936934e-05, Final residual = 3.9486221e-07, No Iterations 3
smoothSolver:  Solving for Uz, Initial residual = 5.215201e-07, Final residual = 1.8381704e-08, No Iterations 3
GAMG:  Solving for p, Initial residual = 1.1200804e-05, Final residual = 7.2588292e-08, No Iterations 3
time step continuity errors : sum local = 1.1150156e-08, global = -3.7325697e-10, cumulative = -1.1723143e-05
ExecutionTime = 311.20142 s  ClockTime = 314 s

Time = 1539s

smoothSolver:  Solving for Ux, Initial residual = 1.1760783e-06, Final residual = 4.2130083e-08, No Iterations 3
smoothSolver:  Solving for Uy, Initial residual = 1.0879063e-05, Final residual = 3.9289572e-07, No Iterations 3
smoothSolver:  Solving for Uz, Initial residual = 5.1870166e-07, Final residual = 1.8270843e-08, No Iterations 3
GAMG:  Solving for p, Initial residual = 1.1143203e-05, Final residual = 7.2269795e-08, No Iterations 3
time step continuity errors : sum local = 1.1101233e-08, global = -3.751385e-10, cumulative = -1.1723518e-05
ExecutionTime = 311.39965 s  ClockTime = 314 s

Time = 1540s

smoothSolver:  Solving for Ux, Initial residual = 1.1697199e-06, Final residual = 4.1879423e-08, No Iterations 3
smoothSolver:  Solving for Uy, Initial residual = 1.0821529e-05, Final residual = 3.9087858e-07, No Iterations 3
smoothSolver:  Solving for Uz, Initial residual = 5.1593307e-07, Final residual = 1.8164293e-08, No Iterations 3
GAMG:  Solving for p, Initial residual = 1.1084571e-05, Final residual = 7.1998726e-08, No Iterations 3
time step continuity errors : sum local = 1.1059595e-08, global = -3.7442636e-10, cumulative = -1.1723892e-05
ExecutionTime = 311.60022 s  ClockTime = 314 s

Time = 1541s

smoothSolver:  Solving for Ux, Initial residual = 1.163413e-06, Final residual = 4.1639691e-08, No Iterations 3
smoothSolver:  Solving for Uy, Initial residual = 1.0764112e-05, Final residual = 3.8881553e-07, No Iterations 3
smoothSolver:  Solving for Uz, Initial residual = 5.1317712e-07, Final residual = 1.8061931e-08, No Iterations 3
GAMG:  Solving for p, Initial residual = 1.1026281e-05, Final residual = 7.1755753e-08, No Iterations 3
time step continuity errors : sum local = 1.1022273e-08, global = -3.691648e-10, cumulative = -1.1724261e-05
ExecutionTime = 311.80101 s  ClockTime = 314 s

Time = 1542s

smoothSolver:  Solving for Ux, Initial residual = 1.1570189e-06, Final residual = 4.1408553e-08, No Iterations 3
smoothSolver:  Solving for Uy, Initial residual = 1.0706659e-05, Final residual = 3.8673615e-07, No Iterations 3
smoothSolver:  Solving for Uz, Initial residual = 5.1046564e-07, Final residual = 1.7965157e-08, No Iterations 3
GAMG:  Solving for p, Initial residual = 1.0968364e-05, Final residual = 7.1544166e-08, No Iterations 3
time step continuity errors : sum local = 1.0989772e-08, global = -3.6210856e-10, cumulative = -1.1724624e-05
ExecutionTime = 312.0021 s  ClockTime = 315 s

Time = 1543s

smoothSolver:  Solving for Ux, Initial residual = 1.1507126e-06, Final residual = 4.1187888e-08, No Iterations 3
smoothSolver:  Solving for Uy, Initial residual = 1.0649441e-05, Final residual = 3.8455635e-07, No Iterations 3
smoothSolver:  Solving for Uz, Initial residual = 5.0779483e-07, Final residual = 1.7874046e-08, No Iterations 3
GAMG:  Solving for p, Initial residual = 1.0909443e-05, Final residual = 7.1329777e-08, No Iterations 3
time step continuity errors : sum local = 1.0956841e-08, global = -3.5041434e-10, cumulative = -1.1724974e-05
ExecutionTime = 312.20244 s  ClockTime = 315 s

Time = 1544s

smoothSolver:  Solving for Ux, Initial residual = 1.1444778e-06, Final residual = 4.0976463e-08, No Iterations 3
smoothSolver:  Solving for Uy, Initial residual = 1.0592518e-05, Final residual = 3.8242024e-07, No Iterations 3
smoothSolver:  Solving for Uz, Initial residual = 5.0515703e-07, Final residual = 1.7789746e-08, No Iterations 3
GAMG:  Solving for p, Initial residual = 1.0850731e-05, Final residual = 7.1134518e-08, No Iterations 3
time step continuity errors : sum local = 1.0926848e-08, global = -3.3612591e-10, cumulative = -1.172531e-05
ExecutionTime = 312.40292 s  ClockTime = 315 s

Time = 1545s

smoothSolver:  Solving for Ux, Initial residual = 1.1383361e-06, Final residual = 4.0781126e-08, No Iterations 3
smoothSolver:  Solving for Uy, Initial residual = 1.0536087e-05, Final residual = 3.8026284e-07, No Iterations 3
smoothSolver:  Solving for Uz, Initial residual = 5.0253448e-07, Final residual = 1.7709558e-08, No Iterations 3
GAMG:  Solving for p, Initial residual = 1.0791839e-05, Final residual = 7.0931878e-08, No Iterations 3
time step continuity errors : sum local = 1.0895722e-08, global = -3.1952616e-10, cumulative = -1.172563e-05
ExecutionTime = 312.60329 s  ClockTime = 315 s

Time = 1546s

smoothSolver:  Solving for Ux, Initial residual = 1.1322851e-06, Final residual = 4.0597321e-08, No Iterations 3
smoothSolver:  Solving for Uy, Initial residual = 1.0479866e-05, Final residual = 3.7812796e-07, No Iterations 3
smoothSolver:  Solving for Uz, Initial residual = 4.9996312e-07, Final residual = 1.7634376e-08, No Iterations 3
GAMG:  Solving for p, Initial residual = 1.0733696e-05, Final residual = 7.0726882e-08, No Iterations 3
time step continuity errors : sum local = 1.0864233e-08, global = -3.0064186e-10, cumulative = -1.172593e-05
ExecutionTime = 312.80482 s  ClockTime = 315 s

Time = 1547s

smoothSolver:  Solving for Ux, Initial residual = 1.1263028e-06, Final residual = 4.0414295e-08, No Iterations 3
smoothSolver:  Solving for Uy, Initial residual = 1.0424746e-05, Final residual = 3.7606739e-07, No Iterations 3
smoothSolver:  Solving for Uz, Initial residual = 4.9739967e-07, Final residual = 1.756141e-08, No Iterations 3
GAMG:  Solving for p, Initial residual = 1.0675607e-05, Final residual = 7.0553876e-08, No Iterations 3
time step continuity errors : sum local = 1.0837658e-08, global = -2.8064782e-10, cumulative = -1.1726211e-05
ExecutionTime = 313.01594 s  ClockTime = 316 s

Time = 1548s

smoothSolver:  Solving for Ux, Initial residual = 1.1204496e-06, Final residual = 4.0232136e-08, No Iterations 3
smoothSolver:  Solving for Uy, Initial residual = 1.0368596e-05, Final residual = 3.7395662e-07, No Iterations 3
smoothSolver:  Solving for Uz, Initial residual = 4.9486448e-07, Final residual = 1.7488853e-08, No Iterations 3
GAMG:  Solving for p, Initial residual = 1.0619016e-05, Final residual = 7.0379531e-08, No Iterations 3
time step continuity errors : sum local = 1.0810877e-08, global = -2.6378601e-10, cumulative = -1.1726475e-05
ExecutionTime = 313.2239 s  ClockTime = 316 s

Time = 1549s

smoothSolver:  Solving for Ux, Initial residual = 1.1147217e-06, Final residual = 4.0049068e-08, No Iterations 3
smoothSolver:  Solving for Uy, Initial residual = 1.0313164e-05, Final residual = 3.7185382e-07, No Iterations 3
smoothSolver:  Solving for Uz, Initial residual = 4.9234156e-07, Final residual = 1.7417301e-08, No Iterations 3
GAMG:  Solving for p, Initial residual = 1.056484e-05, Final residual = 7.0157001e-08, No Iterations 3
time step continuity errors : sum local = 1.0776695e-08, global = -2.4482115e-10, cumulative = -1.1726719e-05
ExecutionTime = 313.42341 s  ClockTime = 316 s

Time = 1550s

smoothSolver:  Solving for Ux, Initial residual = 1.1091545e-06, Final residual = 3.9862427e-08, No Iterations 3
smoothSolver:  Solving for Uy, Initial residual = 1.0258147e-05, Final residual = 3.697477e-07, No Iterations 3
smoothSolver:  Solving for Uz, Initial residual = 4.8987963e-07, Final residual = 1.7346327e-08, No Iterations 3
GAMG:  Solving for p, Initial residual = 1.0511508e-05, Final residual = 6.9903827e-08, No Iterations 3
time step continuity errors : sum local = 1.0737806e-08, global = -2.2641726e-10, cumulative = -1.1726946e-05
ExecutionTime = 313.62402 s  ClockTime = 316 s

Time = 1551s

smoothSolver:  Solving for Ux, Initial residual = 1.1037401e-06, Final residual = 3.9676326e-08, No Iterations 3
smoothSolver:  Solving for Uy, Initial residual = 1.0202855e-05, Final residual = 3.6764469e-07, No Iterations 3
smoothSolver:  Solving for Uz, Initial residual = 4.8742069e-07, Final residual = 1.727472e-08, No Iterations 3
GAMG:  Solving for p, Initial residual = 1.045955e-05, Final residual = 6.9630183e-08, No Iterations 3
time step continuity errors : sum local = 1.0695772e-08, global = -2.0820597e-10, cumulative = -1.1727154e-05
ExecutionTime = 313.82236 s  ClockTime = 316 s

Time = 1552s

smoothSolver:  Solving for Ux, Initial residual = 1.0982871e-06, Final residual = 3.9483994e-08, No Iterations 3
smoothSolver:  Solving for Uy, Initial residual = 1.0148597e-05, Final residual = 3.6555609e-07, No Iterations 3
smoothSolver:  Solving for Uz, Initial residual = 4.8501012e-07, Final residual = 1.7201628e-08, No Iterations 3
GAMG:  Solving for p, Initial residual = 1.0408952e-05, Final residual = 6.9342406e-08, No Iterations 3
time step continuity errors : sum local = 1.0651567e-08, global = -1.8955999e-10, cumulative = -1.1727344e-05
ExecutionTime = 314.02531 s  ClockTime = 317 s

Time = 1553s

smoothSolver:  Solving for Ux, Initial residual = 1.092828e-06, Final residual = 3.929567e-08, No Iterations 3
smoothSolver:  Solving for Uy, Initial residual = 1.0095063e-05, Final residual = 3.6343015e-07, No Iterations 3
smoothSolver:  Solving for Uz, Initial residual = 4.826404e-07, Final residual = 1.7127677e-08, No Iterations 3
GAMG:  Solving for p, Initial residual = 1.0358435e-05, Final residual = 6.9057123e-08, No Iterations 3
time step continuity errors : sum local = 1.0607745e-08, global = -1.6987337e-10, cumulative = -1.1727514e-05
ExecutionTime = 314.22545 s  ClockTime = 317 s

Time = 1554s

smoothSolver:  Solving for Ux, Initial residual = 1.087372e-06, Final residual = 3.9102861e-08, No Iterations 3
smoothSolver:  Solving for Uy, Initial residual = 1.0041973e-05, Final residual = 3.6136013e-07, No Iterations 3
smoothSolver:  Solving for Uz, Initial residual = 4.8028068e-07, Final residual = 1.7050535e-08, No Iterations 3
GAMG:  Solving for p, Initial residual = 1.0307658e-05, Final residual = 6.8764052e-08, No Iterations 3
time step continuity errors : sum local = 1.0562727e-08, global = -1.4871946e-10, cumulative = -1.1727662e-05
ExecutionTime = 314.42529 s  ClockTime = 317 s

Time = 1555s

smoothSolver:  Solving for Ux, Initial residual = 1.0820483e-06, Final residual = 3.8908791e-08, No Iterations 3
smoothSolver:  Solving for Uy, Initial residual = 9.9895554e-06, Final residual = 3.5929673e-07, No Iterations 3
smoothSolver:  Solving for Uz, Initial residual = 4.7797489e-07, Final residual = 1.6973654e-08, No Iterations 3
GAMG:  Solving for p, Initial residual = 1.025648e-05, Final residual = 6.8499481e-08, No Iterations 3
time step continuity errors : sum local = 1.0522086e-08, global = -1.2659275e-10, cumulative = -1.1727789e-05
ExecutionTime = 314.62446 s  ClockTime = 317 s

Time = 1556s

smoothSolver:  Solving for Ux, Initial residual = 1.0767903e-06, Final residual = 3.8718101e-08, No Iterations 3
smoothSolver:  Solving for Uy, Initial residual = 9.9367516e-06, Final residual = 3.5729702e-07, No Iterations 3
smoothSolver:  Solving for Uz, Initial residual = 4.7566359e-07, Final residual = 1.6894603e-08, No Iterations 3
GAMG:  Solving for p, Initial residual = 1.0204777e-05, Final residual = 6.8115101e-08, No Iterations 3
time step continuity errors : sum local = 1.0463042e-08, global = -1.0117524e-10, cumulative = -1.172789e-05
ExecutionTime = 314.82568 s  ClockTime = 317 s

Time = 1557s

smoothSolver:  Solving for Ux, Initial residual = 1.0715166e-06, Final residual = 3.8533527e-08, No Iterations 3
smoothSolver:  Solving for Uy, Initial residual = 9.8841717e-06, Final residual = 3.5534529e-07, No Iterations 3
smoothSolver:  Solving for Uz, Initial residual = 4.7335752e-07, Final residual = 1.6814697e-08, No Iterations 3
GAMG:  Solving for p, Initial residual = 1.0152149e-05, Final residual = 6.7701124e-08, No Iterations 3
time step continuity errors : sum local = 1.0399452e-08, global = -7.3857951e-11, cumulative = -1.1727964e-05
ExecutionTime = 315.02499 s  ClockTime = 318 s

Time = 1558s

smoothSolver:  Solving for Ux, Initial residual = 1.0663313e-06, Final residual = 3.8359983e-08, No Iterations 3
smoothSolver:  Solving for Uy, Initial residual = 9.8322083e-06, Final residual = 3.5340944e-07, No Iterations 3
smoothSolver:  Solving for Uz, Initial residual = 4.7104357e-07, Final residual = 1.6733125e-08, No Iterations 3
GAMG:  Solving for p, Initial residual = 1.0099869e-05, Final residual = 6.7271034e-08, No Iterations 3
time step continuity errors : sum local = 1.0333386e-08, global = -4.7407201e-11, cumulative = -1.1728011e-05
ExecutionTime = 315.22379 s  ClockTime = 318 s

Time = 1559s

smoothSolver:  Solving for Ux, Initial residual = 1.0612149e-06, Final residual = 3.8186061e-08, No Iterations 3
smoothSolver:  Solving for Uy, Initial residual = 9.780168e-06, Final residual = 3.5149801e-07, No Iterations 3
smoothSolver:  Solving for Uz, Initial residual = 4.6873552e-07, Final residual = 1.6650581e-08, No Iterations 3
GAMG:  Solving for p, Initial residual = 1.0049211e-05, Final residual = 6.6762565e-08, No Iterations 3
time step continuity errors : sum local = 1.025528e-08, global = -1.8092142e-11, cumulative = -1.1728029e-05
ExecutionTime = 315.42572 s  ClockTime = 318 s

Time = 1560s

smoothSolver:  Solving for Ux, Initial residual = 1.0561726e-06, Final residual = 3.8017067e-08, No Iterations 3
smoothSolver:  Solving for Uy, Initial residual = 9.7295855e-06, Final residual = 3.496007e-07, No Iterations 3
smoothSolver:  Solving for Uz, Initial residual = 4.6647971e-07, Final residual = 1.6567259e-08, No Iterations 3
GAMG:  Solving for p, Initial residual = 9.998035e-06, Final residual = 6.6323063e-08, No Iterations 3
time step continuity errors : sum local = 1.0187769e-08, global = 1.3965878e-11, cumulative = -1.1728015e-05
ExecutionTime = 315.6262 s  ClockTime = 318 s


SIMPLE solution converged in 1560 iterations

End

Finalising parallel run
