/*---------------------------------------------------------------------------*\
  =========                 |
  \\      /  F ield         | OpenFOAM: The Open Source CFD Toolbox
   \\    /   O peration     | Website:  https://openfoam.org
    \\  /    A nd           | Version:  11
     \\/     M anipulation  |
\*---------------------------------------------------------------------------*/
Build  : 11-e1fc8c682ae6
Exec   : foamRun -solver incompressibleFluid -parallel
Date   : Feb 10 2026
Time   : 05:36:29
Host   : "ip-172-31-18-192"
PID    : 142800
I/O    : uncollated
Case   : /home/ubuntu/cases/bifurcation_angle60_1000_ascii/Re100
nProcs : 16
Slaves : 
15
(
"ip-172-31-18-192.142801"
"ip-172-31-18-192.142802"
"ip-172-31-18-192.142803"
"ip-172-31-18-192.142804"
"ip-172-31-18-192.142805"
"ip-172-31-18-192.142806"
"ip-172-31-18-192.142807"
"ip-172-31-18-192.142808"
"ip-172-31-18-192.142809"
"ip-172-31-18-192.142810"
"ip-172-31-18-192.142811"
"ip-172-31-18-192.142812"
"ip-172-31-18-192.142813"
"ip-172-31-18-192.142814"
"ip-172-31-18-192.142815"
)

Pstream initialised with:
    floatTransfer      : false
    nProcsSimpleSum    : 0
    commsType          : nonBlocking
    polling iterations : 0
sigFpe : Enabling floating point exception trapping (FOAM_SIGFPE).
fileModificationChecking : Monitoring run-time modified files using timeStampMaster (fileModificationSkew 10)
allowSystemOperations : Allowing user-supplied system call operations

// * * * * * * * * * * * * * * * * * * * * * * * * * * * * * * * * * * * * * //
Create time

Create mesh for time = 0

Selecting solver incompressibleFluid
Selecting viscosity model Newtonian
Selecting turbulence model type laminar
Selecting laminar stress model Stokes
No MRF models present


SIMPLE: Convergence criteria found
        p: tolerance 1e-05
        U: tolerance 1e-05


SIMPLE: Operating solver in steady-state mode with 1 outer corrector
SIMPLE: Operating solver in SIMPLE mode



Starting time loop

wallShearStress wallShearStress:
    processing wall patches: 
        wall-fluid_domain

Time = 1s

smoothSolver:  Solving for Ux, Initial residual = 1, Final residual = 0.061903993, No Iterations 1
smoothSolver:  Solving for Uy, Initial residual = 1, Final residual = 0.057556678, No Iterations 1
smoothSolver:  Solving for Uz, Initial residual = 1, Final residual = 0.035922205, No Iterations 1
GAMG:  Solving for p, Initial residual = 1, Final residual = 0.0045166534, No Iterations 11
time step continuity errors : sum local = 3.0651236e-05, global = -5.9610453e-07, cumulative = -5.9610453e-07
ExecutionTime = 0.789647 s  ClockTime = 1 s

Time = 2s

smoothSolver:  Solving for Ux, Initial residual = 0.25293585, Final residual = 0.018965893, No Iterations 2
smoothSolver:  Solving for Uy, Initial residual = 0.25836335, Final residual = 0.010533941, No Iterations 2
smoothSolver:  Solving for Uz, Initial residual = 0.40039123, Final residual = 0.013073554, No Iterations 3
GAMG:  Solving for p, Initial residual = 0.23446769, Final residual = 0.0013456246, No Iterations 6
time step continuity errors : sum local = 0.0016652959, global = -4.038351e-05, cumulative = -4.0979615e-05
ExecutionTime = 1.049939 s  ClockTime = 1 s

Time = 3s

smoothSolver:  Solving for Ux, Initial residual = 0.2236239, Final residual = 0.022244192, No Iterations 2
smoothSolver:  Solving for Uy, Initial residual = 0.11716552, Final residual = 0.0065083777, No Iterations 2
smoothSolver:  Solving for Uz, Initial residual = 0.60894067, Final residual = 0.021117943, No Iterations 3
GAMG:  Solving for p, Initial residual = 0.14740167, Final residual = 0.00063623218, No Iterations 4
time step continuity errors : sum local = 0.0021422665, global = -3.3693212e-06, cumulative = -4.4348936e-05
ExecutionTime = 1.260491 s  ClockTime = 1 s

Time = 4s

smoothSolver:  Solving for Ux, Initial residual = 0.13945977, Final residual = 0.0045125336, No Iterations 3
smoothSolver:  Solving for Uy, Initial residual = 0.063817187, Final residual = 0.0035891167, No Iterations 2
smoothSolver:  Solving for Uz, Initial residual = 0.43624208, Final residual = 0.015169574, No Iterations 3
GAMG:  Solving for p, Initial residual = 0.095785514, Final residual = 0.00042776719, No Iterations 6
time step continuity errors : sum local = 0.0013299471, global = 1.7930528e-05, cumulative = -2.6418407e-05
ExecutionTime = 1.492849 s  ClockTime = 2 s

Time = 5s

smoothSolver:  Solving for Ux, Initial residual = 0.074077201, Final residual = 0.0065530789, No Iterations 2
smoothSolver:  Solving for Uy, Initial residual = 0.2157909, Final residual = 0.013454399, No Iterations 2
smoothSolver:  Solving for Uz, Initial residual = 0.14028207, Final residual = 0.0049109109, No Iterations 3
GAMG:  Solving for p, Initial residual = 0.12787627, Final residual = 0.00095411123, No Iterations 6
time step continuity errors : sum local = 0.0013207639, global = 3.501292e-05, cumulative = 8.5945123e-06
ExecutionTime = 1.722605 s  ClockTime = 2 s

Time = 6s

smoothSolver:  Solving for Ux, Initial residual = 0.094481942, Final residual = 0.0075488051, No Iterations 2
smoothSolver:  Solving for Uy, Initial residual = 0.39529429, Final residual = 0.023889592, No Iterations 2
smoothSolver:  Solving for Uz, Initial residual = 0.11020399, Final residual = 0.0037636564, No Iterations 3
GAMG:  Solving for p, Initial residual = 0.39790587, Final residual = 0.0033332222, No Iterations 4
time step continuity errors : sum local = 0.0036863492, global = 6.9015936e-05, cumulative = 7.7610449e-05
ExecutionTime = 1.929675 s  ClockTime = 2 s

Time = 7s

smoothSolver:  Solving for Ux, Initial residual = 0.12937631, Final residual = 0.01200076, No Iterations 2
smoothSolver:  Solving for Uy, Initial residual = 0.22414337, Final residual = 0.012900816, No Iterations 2
smoothSolver:  Solving for Uz, Initial residual = 0.2549203, Final residual = 0.0088000734, No Iterations 3
GAMG:  Solving for p, Initial residual = 0.26535183, Final residual = 0.001354517, No Iterations 4
time step continuity errors : sum local = 0.0023364784, global = -4.0787798e-06, cumulative = 7.3531669e-05
ExecutionTime = 2.137917 s  ClockTime = 2 s

Time = 8s

smoothSolver:  Solving for Ux, Initial residual = 0.10527733, Final residual = 0.010412955, No Iterations 2
smoothSolver:  Solving for Uy, Initial residual = 0.12692647, Final residual = 0.0084797255, No Iterations 2
smoothSolver:  Solving for Uz, Initial residual = 0.24053771, Final residual = 0.0083081198, No Iterations 3
GAMG:  Solving for p, Initial residual = 0.20747653, Final residual = 0.0012834197, No Iterations 5
time step continuity errors : sum local = 0.0017072125, global = -1.1328713e-05, cumulative = 6.2202956e-05
ExecutionTime = 2.357493 s  ClockTime = 2 s

Time = 9s

smoothSolver:  Solving for Ux, Initial residual = 0.063205418, Final residual = 0.0052240961, No Iterations 2
smoothSolver:  Solving for Uy, Initial residual = 0.28862024, Final residual = 0.021182911, No Iterations 2
smoothSolver:  Solving for Uz, Initial residual = 0.06705635, Final residual = 0.0021920755, No Iterations 3
GAMG:  Solving for p, Initial residual = 0.25939633, Final residual = 0.0013225692, No Iterations 6
time step continuity errors : sum local = 0.00057764302, global = -1.0120334e-05, cumulative = 5.2082622e-05
ExecutionTime = 2.589235 s  ClockTime = 3 s

Time = 10s

smoothSolver:  Solving for Ux, Initial residual = 0.072534914, Final residual = 0.0062031861, No Iterations 2
smoothSolver:  Solving for Uy, Initial residual = 0.37631076, Final residual = 0.024965939, No Iterations 2
smoothSolver:  Solving for Uz, Initial residual = 0.10174645, Final residual = 0.0035377776, No Iterations 3
GAMG:  Solving for p, Initial residual = 0.28848883, Final residual = 0.0021795607, No Iterations 4
time step continuity errors : sum local = 0.0013995452, global = -1.7246634e-05, cumulative = 3.4835988e-05
ExecutionTime = 2.797293 s  ClockTime = 3 s

Time = 11s

smoothSolver:  Solving for Ux, Initial residual = 0.067185467, Final residual = 0.006351465, No Iterations 2
smoothSolver:  Solving for Uy, Initial residual = 0.20281309, Final residual = 0.012255168, No Iterations 2
smoothSolver:  Solving for Uz, Initial residual = 0.13521131, Final residual = 0.0047062632, No Iterations 3
GAMG:  Solving for p, Initial residual = 0.21934199, Final residual = 0.0017295202, No Iterations 4
time step continuity errors : sum local = 0.0014476572, global = 8.3996937e-06, cumulative = 4.3235682e-05
ExecutionTime = 3.004378 s  ClockTime = 3 s

Time = 12s

smoothSolver:  Solving for Ux, Initial residual = 0.04247823, Final residual = 0.0013378228, No Iterations 3
smoothSolver:  Solving for Uy, Initial residual = 0.15011091, Final residual = 0.011859798, No Iterations 2
smoothSolver:  Solving for Uz, Initial residual = 0.08332397, Final residual = 0.0029129898, No Iterations 3
GAMG:  Solving for p, Initial residual = 0.16675041, Final residual = 0.0014031515, No Iterations 5
time step continuity errors : sum local = 0.00082742834, global = 3.5114324e-06, cumulative = 4.6747114e-05
ExecutionTime = 3.226117 s  ClockTime = 3 s

Time = 13s

smoothSolver:  Solving for Ux, Initial residual = 0.026901177, Final residual = 0.0022011863, No Iterations 2
smoothSolver:  Solving for Uy, Initial residual = 0.32485255, Final residual = 0.025615706, No Iterations 2
smoothSolver:  Solving for Uz, Initial residual = 0.016295836, Final residual = 0.0014804883, No Iterations 2
GAMG:  Solving for p, Initial residual = 0.34543615, Final residual = 0.003443408, No Iterations 5
time step continuity errors : sum local = 0.00060190479, global = 1.4069529e-06, cumulative = 4.8154067e-05
ExecutionTime = 3.444282 s  ClockTime = 4 s

Time = 14s

smoothSolver:  Solving for Ux, Initial residual = 0.032800489, Final residual = 0.0028909681, No Iterations 2
smoothSolver:  Solving for Uy, Initial residual = 0.30215735, Final residual = 0.021574511, No Iterations 2
smoothSolver:  Solving for Uz, Initial residual = 0.047564599, Final residual = 0.0016192361, No Iterations 3
GAMG:  Solving for p, Initial residual = 0.29393316, Final residual = 0.0016829262, No Iterations 4
time step continuity errors : sum local = 0.00054998361, global = 6.0375485e-06, cumulative = 5.4191616e-05
ExecutionTime = 3.65144 s  ClockTime = 4 s

Time = 15s

smoothSolver:  Solving for Ux, Initial residual = 0.030859383, Final residual = 0.0029312195, No Iterations 2
smoothSolver:  Solving for Uy, Initial residual = 0.15769088, Final residual = 0.010337875, No Iterations 2
smoothSolver:  Solving for Uz, Initial residual = 0.058712236, Final residual = 0.0020083505, No Iterations 3
GAMG:  Solving for p, Initial residual = 0.22803517, Final residual = 0.0021705604, No Iterations 4
time step continuity errors : sum local = 0.00079052072, global = -6.724449e-06, cumulative = 4.7467167e-05
ExecutionTime = 3.859598 s  ClockTime = 4 s

Time = 16s

smoothSolver:  Solving for Ux, Initial residual = 0.020706169, Final residual = 0.0020456485, No Iterations 2
smoothSolver:  Solving for Uy, Initial residual = 0.15161803, Final residual = 0.012836648, No Iterations 2
smoothSolver:  Solving for Uz, Initial residual = 0.03316985, Final residual = 0.0011261515, No Iterations 3
GAMG:  Solving for p, Initial residual = 0.18216383, Final residual = 0.0017386704, No Iterations 5
time step continuity errors : sum local = 0.0003825805, global = -1.6009314e-06, cumulative = 4.5866235e-05
ExecutionTime = 4.078436 s  ClockTime = 4 s

Time = 17s

smoothSolver:  Solving for Ux, Initial residual = 0.015227298, Final residual = 0.0012531118, No Iterations 2
smoothSolver:  Solving for Uy, Initial residual = 0.25961938, Final residual = 0.020909446, No Iterations 2
smoothSolver:  Solving for Uz, Initial residual = 0.0096988725, Final residual = 0.00094100002, No Iterations 2
GAMG:  Solving for p, Initial residual = 0.31597702, Final residual = 0.0023488383, No Iterations 5
time step continuity errors : sum local = 0.00024276943, global = -1.012777e-06, cumulative = 4.4853458e-05
ExecutionTime = 4.294651 s  ClockTime = 4 s

Time = 18s

smoothSolver:  Solving for Ux, Initial residual = 0.017236808, Final residual = 0.0015939482, No Iterations 2
smoothSolver:  Solving for Uy, Initial residual = 0.20278054, Final residual = 0.014843605, No Iterations 2
smoothSolver:  Solving for Uz, Initial residual = 0.027292383, Final residual = 0.00096230153, No Iterations 3
GAMG:  Solving for p, Initial residual = 0.21202959, Final residual = 0.001086165, No Iterations 4
time step continuity errors : sum local = 0.00023365881, global = 1.9814192e-07, cumulative = 4.50516e-05
ExecutionTime = 4.501909 s  ClockTime = 5 s

Time = 19s

smoothSolver:  Solving for Ux, Initial residual = 0.01405754, Final residual = 0.0013968266, No Iterations 2
smoothSolver:  Solving for Uy, Initial residual = 0.10968825, Final residual = 0.0079663775, No Iterations 2
smoothSolver:  Solving for Uz, Initial residual = 0.026602031, Final residual = 0.00093934205, No Iterations 3
GAMG:  Solving for p, Initial residual = 0.16426954, Final residual = 0.00080112555, No Iterations 5
time step continuity errors : sum local = 0.00017103247, global = 9.1904413e-07, cumulative = 4.5970644e-05
ExecutionTime = 4.722102 s  ClockTime = 5 s

Time = 20s

smoothSolver:  Solving for Ux, Initial residual = 0.0097240074, Final residual = 0.0003040313, No Iterations 3
smoothSolver:  Solving for Uy, Initial residual = 0.12654704, Final residual = 0.011184239, No Iterations 2
smoothSolver:  Solving for Uz, Initial residual = 0.012462041, Final residual = 0.00043618473, No Iterations 3
GAMG:  Solving for p, Initial residual = 0.11358783, Final residual = 0.00049596418, No Iterations 6
time step continuity errors : sum local = 6.8505564e-05, global = 1.1548512e-06, cumulative = 4.7125496e-05
ExecutionTime = 4.955886 s  ClockTime = 5 s

Time = 21s

smoothSolver:  Solving for Ux, Initial residual = 0.007837508, Final residual = 0.00066832457, No Iterations 2
smoothSolver:  Solving for Uy, Initial residual = 0.16446522, Final residual = 0.013602281, No Iterations 2
smoothSolver:  Solving for Uz, Initial residual = 0.0060995136, Final residual = 0.00057268176, No Iterations 2
GAMG:  Solving for p, Initial residual = 0.29684574, Final residual = 0.0015701337, No Iterations 5
time step continuity errors : sum local = 9.501858e-05, global = 4.0783234e-07, cumulative = 4.7533328e-05
ExecutionTime = 5.173074 s  ClockTime = 5 s

Time = 22s

smoothSolver:  Solving for Ux, Initial residual = 0.0076234582, Final residual = 0.00068314174, No Iterations 2
smoothSolver:  Solving for Uy, Initial residual = 0.1184073, Final residual = 0.0090041261, No Iterations 2
smoothSolver:  Solving for Uz, Initial residual = 0.012246591, Final residual = 0.00040547252, No Iterations 3
GAMG:  Solving for p, Initial residual = 0.21744969, Final residual = 0.0015252864, No Iterations 4
time step continuity errors : sum local = 0.00015329822, global = -7.9102499e-07, cumulative = 4.6742303e-05
ExecutionTime = 5.383086 s  ClockTime = 5 s

Time = 23s

smoothSolver:  Solving for Ux, Initial residual = 0.0059396808, Final residual = 0.00057044053, No Iterations 2
smoothSolver:  Solving for Uy, Initial residual = 0.067230078, Final residual = 0.0053447509, No Iterations 2
smoothSolver:  Solving for Uz, Initial residual = 0.010419719, Final residual = 0.00034376128, No Iterations 3
GAMG:  Solving for p, Initial residual = 0.168201, Final residual = 0.00094764478, No Iterations 5
time step continuity errors : sum local = 8.5611308e-05, global = -3.9758946e-07, cumulative = 4.6344713e-05
ExecutionTime = 5.602467 s  ClockTime = 6 s

Time = 24s

smoothSolver:  Solving for Ux, Initial residual = 0.0045797842, Final residual = 0.00042886962, No Iterations 2
smoothSolver:  Solving for Uy, Initial residual = 0.083710364, Final residual = 0.0074816208, No Iterations 2
smoothSolver:  Solving for Uz, Initial residual = 0.0043848194, Final residual = 0.00043143947, No Iterations 2
GAMG:  Solving for p, Initial residual = 0.14003076, Final residual = 0.00056934616, No Iterations 6
time step continuity errors : sum local = 2.9220269e-05, global = -4.5532319e-07, cumulative = 4.588939e-05
ExecutionTime = 5.831374 s  ClockTime = 6 s

Time = 25s

smoothSolver:  Solving for Ux, Initial residual = 0.0046606954, Final residual = 0.00043813231, No Iterations 2
smoothSolver:  Solving for Uy, Initial residual = 0.089972865, Final residual = 0.0075976122, No Iterations 2
smoothSolver:  Solving for Uz, Initial residual = 0.0058749335, Final residual = 0.00020039591, No Iterations 3
GAMG:  Solving for p, Initial residual = 0.1092703, Final residual = 0.0010433463, No Iterations 4
time step continuity errors : sum local = 8.8371957e-05, global = -7.983667e-07, cumulative = 4.5091024e-05
ExecutionTime = 6.040552 s  ClockTime = 6 s

Time = 26s

smoothSolver:  Solving for Ux, Initial residual = 0.0043452099, Final residual = 0.00042793389, No Iterations 2
smoothSolver:  Solving for Uy, Initial residual = 0.060900672, Final residual = 0.004978799, No Iterations 2
smoothSolver:  Solving for Uz, Initial residual = 0.0071809029, Final residual = 0.00025376524, No Iterations 3
GAMG:  Solving for p, Initial residual = 0.097906526, Final residual = 0.00085132977, No Iterations 4
time step continuity errors : sum local = 8.4157124e-05, global = 3.1600712e-07, cumulative = 4.5407031e-05
ExecutionTime = 6.249542 s  ClockTime = 6 s

Time = 27s

smoothSolver:  Solving for Ux, Initial residual = 0.0035914859, Final residual = 0.00011667734, No Iterations 3
smoothSolver:  Solving for Uy, Initial residual = 0.042336522, Final residual = 0.0038832912, No Iterations 2
smoothSolver:  Solving for Uz, Initial residual = 0.0060091449, Final residual = 0.00020893494, No Iterations 3
GAMG:  Solving for p, Initial residual = 0.066076063, Final residual = 0.00045416812, No Iterations 5
time step continuity errors : sum local = 4.1617747e-05, global = 1.9047734e-07, cumulative = 4.5597508e-05
ExecutionTime = 6.472384 s  ClockTime = 7 s

Time = 28s

smoothSolver:  Solving for Ux, Initial residual = 0.0032425859, Final residual = 0.00010075639, No Iterations 3
smoothSolver:  Solving for Uy, Initial residual = 0.050816792, Final residual = 0.0047212803, No Iterations 2
smoothSolver:  Solving for Uz, Initial residual = 0.0042441172, Final residual = 0.00013905884, No Iterations 3
GAMG:  Solving for p, Initial residual = 0.050893343, Final residual = 0.00043753526, No Iterations 5
time step continuity errors : sum local = 3.1984655e-05, global = 1.6423722e-07, cumulative = 4.5761745e-05
ExecutionTime = 6.694496 s  ClockTime = 7 s

Time = 29s

smoothSolver:  Solving for Ux, Initial residual = 0.0028456569, Final residual = 0.00027263164, No Iterations 2
smoothSolver:  Solving for Uy, Initial residual = 0.0488939, Final residual = 0.0043405912, No Iterations 2
smoothSolver:  Solving for Uz, Initial residual = 0.003436536, Final residual = 0.00010639684, No Iterations 3
GAMG:  Solving for p, Initial residual = 0.088018411, Final residual = 0.00067564861, No Iterations 4
time step continuity errors : sum local = 3.9244978e-05, global = 3.4529842e-07, cumulative = 4.6107044e-05
ExecutionTime = 6.902507 s  ClockTime = 7 s

Time = 30s

smoothSolver:  Solving for Ux, Initial residual = 0.002383569, Final residual = 0.00023074834, No Iterations 2
smoothSolver:  Solving for Uy, Initial residual = 0.034313631, Final residual = 0.0030777902, No Iterations 2
smoothSolver:  Solving for Uz, Initial residual = 0.0033194439, Final residual = 0.00010259528, No Iterations 3
GAMG:  Solving for p, Initial residual = 0.089583044, Final residual = 0.00075477878, No Iterations 4
time step continuity errors : sum local = 4.0538499e-05, global = -2.4494167e-07, cumulative = 4.5862102e-05
ExecutionTime = 7.112454 s  ClockTime = 7 s

Time = 31s

smoothSolver:  Solving for Ux, Initial residual = 0.0022061996, Final residual = 6.8477571e-05, No Iterations 3
smoothSolver:  Solving for Uy, Initial residual = 0.028831469, Final residual = 0.0027972357, No Iterations 2
smoothSolver:  Solving for Uz, Initial residual = 0.003226631, Final residual = 0.00010210977, No Iterations 3
GAMG:  Solving for p, Initial residual = 0.052543955, Final residual = 0.00032080935, No Iterations 5
time step continuity errors : sum local = 1.8599382e-05, global = -7.2563728e-08, cumulative = 4.5789538e-05
ExecutionTime = 7.337035 s  ClockTime = 7 s

Time = 32s

smoothSolver:  Solving for Ux, Initial residual = 0.0023012419, Final residual = 7.2560324e-05, No Iterations 3
smoothSolver:  Solving for Uy, Initial residual = 0.032070533, Final residual = 0.0030792274, No Iterations 2
smoothSolver:  Solving for Uz, Initial residual = 0.0034789178, Final residual = 0.00011422954, No Iterations 3
GAMG:  Solving for p, Initial residual = 0.03437327, Final residual = 0.0001873644, No Iterations 5
time step continuity errors : sum local = 1.2430563e-05, global = -6.5080766e-08, cumulative = 4.5724457e-05
ExecutionTime = 7.557355 s  ClockTime = 8 s

Time = 33s

smoothSolver:  Solving for Ux, Initial residual = 0.002279543, Final residual = 7.3120324e-05, No Iterations 3
smoothSolver:  Solving for Uy, Initial residual = 0.029429377, Final residual = 0.0027989822, No Iterations 2
smoothSolver:  Solving for Uz, Initial residual = 0.0037471529, Final residual = 0.00012608558, No Iterations 3
GAMG:  Solving for p, Initial residual = 0.036276505, Final residual = 0.00019641755, No Iterations 4
time step continuity errors : sum local = 1.4249359e-05, global = -1.4931925e-07, cumulative = 4.5575138e-05
ExecutionTime = 7.769345 s  ClockTime = 8 s

Time = 34s

smoothSolver:  Solving for Ux, Initial residual = 0.002117627, Final residual = 6.9571617e-05, No Iterations 3
smoothSolver:  Solving for Uy, Initial residual = 0.023744933, Final residual = 0.0023520712, No Iterations 2
smoothSolver:  Solving for Uz, Initial residual = 0.003697505, Final residual = 0.00012480525, No Iterations 3
GAMG:  Solving for p, Initial residual = 0.031059942, Final residual = 0.00029256438, No Iterations 4
time step continuity errors : sum local = 2.1526597e-05, global = 1.640193e-07, cumulative = 4.5739157e-05
ExecutionTime = 7.980986 s  ClockTime = 8 s

Time = 35s

smoothSolver:  Solving for Ux, Initial residual = 0.0019994109, Final residual = 6.5856247e-05, No Iterations 3
smoothSolver:  Solving for Uy, Initial residual = 0.022406001, Final residual = 0.00071330657, No Iterations 3
smoothSolver:  Solving for Uz, Initial residual = 0.0034114799, Final residual = 0.00011393706, No Iterations 3
GAMG:  Solving for p, Initial residual = 0.023496661, Final residual = 0.00012916339, No Iterations 5
time step continuity errors : sum local = 9.1449428e-06, global = 5.9232767e-08, cumulative = 4.579839e-05
ExecutionTime = 8.207236 s  ClockTime = 8 s

Time = 36s

smoothSolver:  Solving for Ux, Initial residual = 0.0019172061, Final residual = 6.2160755e-05, No Iterations 3
smoothSolver:  Solving for Uy, Initial residual = 0.022637328, Final residual = 0.0007088433, No Iterations 3
smoothSolver:  Solving for Uz, Initial residual = 0.0031139617, Final residual = 0.00010245794, No Iterations 3
GAMG:  Solving for p, Initial residual = 0.02506297, Final residual = 0.00021284142, No Iterations 4
time step continuity errors : sum local = 1.4236581e-05, global = 9.6805782e-08, cumulative = 4.5895196e-05
ExecutionTime = 8.420606 s  ClockTime = 9 s

Time = 37s

smoothSolver:  Solving for Ux, Initial residual = 0.0018168643, Final residual = 5.8696047e-05, No Iterations 3
smoothSolver:  Solving for Uy, Initial residual = 0.020750271, Final residual = 0.00065174635, No Iterations 3
smoothSolver:  Solving for Uz, Initial residual = 0.0029466779, Final residual = 9.6297797e-05, No Iterations 3
GAMG:  Solving for p, Initial residual = 0.027893529, Final residual = 0.00012752088, No Iterations 4
time step continuity errors : sum local = 8.2340488e-06, global = 7.7857048e-08, cumulative = 4.5973053e-05
ExecutionTime = 8.63965 s  ClockTime = 9 s

Time = 38s

smoothSolver:  Solving for Ux, Initial residual = 0.0017407654, Final residual = 5.6766354e-05, No Iterations 3
smoothSolver:  Solving for Uy, Initial residual = 0.01881555, Final residual = 0.00060641086, No Iterations 3
smoothSolver:  Solving for Uz, Initial residual = 0.0028798244, Final residual = 9.440386e-05, No Iterations 3
GAMG:  Solving for p, Initial residual = 0.024712183, Final residual = 0.00015188491, No Iterations 4
time step continuity errors : sum local = 9.806419e-06, global = -9.8323432e-08, cumulative = 4.587473e-05
ExecutionTime = 8.852067 s  ClockTime = 9 s

Time = 39s

smoothSolver:  Solving for Ux, Initial residual = 0.0017141844, Final residual = 5.6314972e-05, No Iterations 3
smoothSolver:  Solving for Uy, Initial residual = 0.018513505, Final residual = 0.00060172874, No Iterations 3
smoothSolver:  Solving for Uz, Initial residual = 0.0028678544, Final residual = 9.4844741e-05, No Iterations 3
GAMG:  Solving for p, Initial residual = 0.020191681, Final residual = 0.00013419154, No Iterations 4
time step continuity errors : sum local = 8.863877e-06, global = -1.1378456e-07, cumulative = 4.5760945e-05
ExecutionTime = 9.065692 s  ClockTime = 9 s

Time = 40s

smoothSolver:  Solving for Ux, Initial residual = 0.0016909122, Final residual = 5.5842533e-05, No Iterations 3
smoothSolver:  Solving for Uy, Initial residual = 0.018280367, Final residual = 0.00059295723, No Iterations 3
smoothSolver:  Solving for Uz, Initial residual = 0.0028710911, Final residual = 9.5833619e-05, No Iterations 3
GAMG:  Solving for p, Initial residual = 0.018662388, Final residual = 8.435514e-05, No Iterations 4
time step continuity errors : sum local = 5.7192969e-06, global = -6.579074e-08, cumulative = 4.5695154e-05
ExecutionTime = 9.277343 s  ClockTime = 9 s

Time = 41s

smoothSolver:  Solving for Ux, Initial residual = 0.0016463189, Final residual = 5.4683001e-05, No Iterations 3
smoothSolver:  Solving for Uy, Initial residual = 0.017381178, Final residual = 0.00056869602, No Iterations 3
smoothSolver:  Solving for Uz, Initial residual = 0.0028442099, Final residual = 9.5418416e-05, No Iterations 3
GAMG:  Solving for p, Initial residual = 0.018040883, Final residual = 7.8578337e-05, No Iterations 4
time step continuity errors : sum local = 5.4026979e-06, global = 1.6012531e-08, cumulative = 4.5711167e-05
ExecutionTime = 9.49071 s  ClockTime = 10 s

Time = 42s

smoothSolver:  Solving for Ux, Initial residual = 0.001597992, Final residual = 5.3264659e-05, No Iterations 3
smoothSolver:  Solving for Uy, Initial residual = 0.016570229, Final residual = 0.00054835563, No Iterations 3
smoothSolver:  Solving for Uz, Initial residual = 0.0027753581, Final residual = 9.3134702e-05, No Iterations 3
GAMG:  Solving for p, Initial residual = 0.016908684, Final residual = 9.6089154e-05, No Iterations 4
time step continuity errors : sum local = 6.6023635e-06, global = 2.4952951e-08, cumulative = 4.573612e-05
ExecutionTime = 9.705226 s  ClockTime = 10 s

Time = 43s

smoothSolver:  Solving for Ux, Initial residual = 0.0015575132, Final residual = 5.1873498e-05, No Iterations 3
smoothSolver:  Solving for Uy, Initial residual = 0.016150114, Final residual = 0.00053604243, No Iterations 3
smoothSolver:  Solving for Uz, Initial residual = 0.0026848649, Final residual = 8.9871214e-05, No Iterations 3
GAMG:  Solving for p, Initial residual = 0.0164015, Final residual = 8.836826e-05, No Iterations 4
time step continuity errors : sum local = 6.0099609e-06, global = 2.057681e-08, cumulative = 4.5756697e-05
ExecutionTime = 9.9173 s  ClockTime = 10 s

Time = 44s

smoothSolver:  Solving for Ux, Initial residual = 0.0015204395, Final residual = 5.0567689e-05, No Iterations 3
smoothSolver:  Solving for Uy, Initial residual = 0.015746941, Final residual = 0.00052260103, No Iterations 3
smoothSolver:  Solving for Uz, Initial residual = 0.0026024394, Final residual = 8.6935241e-05, No Iterations 3
GAMG:  Solving for p, Initial residual = 0.016637616, Final residual = 0.00015702508, No Iterations 3
time step continuity errors : sum local = 1.0567565e-05, global = 1.3175848e-07, cumulative = 4.5888455e-05
ExecutionTime = 10.11989 s  ClockTime = 10 s

Time = 45s

smoothSolver:  Solving for Ux, Initial residual = 0.001485868, Final residual = 4.9471769e-05, No Iterations 3
smoothSolver:  Solving for Uy, Initial residual = 0.015262827, Final residual = 0.0005081074, No Iterations 3
smoothSolver:  Solving for Uz, Initial residual = 0.002541106, Final residual = 8.4915373e-05, No Iterations 3
GAMG:  Solving for p, Initial residual = 0.016385576, Final residual = 9.6256578e-05, No Iterations 3
time step continuity errors : sum local = 6.4536014e-06, global = 8.0227374e-08, cumulative = 4.5968683e-05
ExecutionTime = 10.321234 s  ClockTime = 10 s

Time = 46s

smoothSolver:  Solving for Ux, Initial residual = 0.0014569551, Final residual = 4.8625046e-05, No Iterations 3
smoothSolver:  Solving for Uy, Initial residual = 0.014884809, Final residual = 0.00049689605, No Iterations 3
smoothSolver:  Solving for Uz, Initial residual = 0.0024951652, Final residual = 8.3562915e-05, No Iterations 3
GAMG:  Solving for p, Initial residual = 0.015619588, Final residual = 9.9024256e-05, No Iterations 3
time step continuity errors : sum local = 6.6561618e-06, global = -2.5115306e-08, cumulative = 4.5943567e-05
ExecutionTime = 10.521397 s  ClockTime = 11 s

Time = 47s

smoothSolver:  Solving for Ux, Initial residual = 0.0014306989, Final residual = 4.7859128e-05, No Iterations 3
smoothSolver:  Solving for Uy, Initial residual = 0.01457252, Final residual = 0.00048710958, No Iterations 3
smoothSolver:  Solving for Uz, Initial residual = 0.0024563444, Final residual = 8.2493799e-05, No Iterations 3
GAMG:  Solving for p, Initial residual = 0.014912406, Final residual = 9.7643243e-05, No Iterations 3
time step continuity errors : sum local = 6.5964356e-06, global = -2.5082709e-08, cumulative = 4.5918484e-05
ExecutionTime = 10.722572 s  ClockTime = 11 s

Time = 48s

smoothSolver:  Solving for Ux, Initial residual = 0.0014038605, Final residual = 4.7071333e-05, No Iterations 3
smoothSolver:  Solving for Uy, Initial residual = 0.014218618, Final residual = 0.00047587298, No Iterations 3
smoothSolver:  Solving for Uz, Initial residual = 0.002419179, Final residual = 8.1462728e-05, No Iterations 3
GAMG:  Solving for p, Initial residual = 0.01440383, Final residual = 5.9581124e-05, No Iterations 3
time step continuity errors : sum local = 4.0460571e-06, global = 1.0169693e-08, cumulative = 4.5928654e-05
ExecutionTime = 10.920661 s  ClockTime = 11 s

Time = 49s

smoothSolver:  Solving for Ux, Initial residual = 0.001376726, Final residual = 4.6257667e-05, No Iterations 3
smoothSolver:  Solving for Uy, Initial residual = 0.013837798, Final residual = 0.00046410291, No Iterations 3
smoothSolver:  Solving for Uz, Initial residual = 0.0023792244, Final residual = 8.026611e-05, No Iterations 3
GAMG:  Solving for p, Initial residual = 0.014005689, Final residual = 0.00010076716, No Iterations 3
time step continuity errors : sum local = 6.8650087e-06, global = 7.2947171e-08, cumulative = 4.6001601e-05
ExecutionTime = 11.123608 s  ClockTime = 11 s

Time = 50s

smoothSolver:  Solving for Ux, Initial residual = 0.0013509549, Final residual = 4.5455745e-05, No Iterations 3
smoothSolver:  Solving for Uy, Initial residual = 0.013493537, Final residual = 0.00045327373, No Iterations 3
smoothSolver:  Solving for Uz, Initial residual = 0.0023361129, Final residual = 7.8889634e-05, No Iterations 3
GAMG:  Solving for p, Initial residual = 0.013674616, Final residual = 0.00011659969, No Iterations 3
time step continuity errors : sum local = 7.9510877e-06, global = 9.7671353e-08, cumulative = 4.6099273e-05
ExecutionTime = 11.326867 s  ClockTime = 11 s

Time = 51s

smoothSolver:  Solving for Ux, Initial residual = 0.0013268385, Final residual = 4.4672364e-05, No Iterations 3
smoothSolver:  Solving for Uy, Initial residual = 0.013192047, Final residual = 0.00044345397, No Iterations 3
smoothSolver:  Solving for Uz, Initial residual = 0.0022906485, Final residual = 7.7379133e-05, No Iterations 3
GAMG:  Solving for p, Initial residual = 0.013451414, Final residual = 0.0001150048, No Iterations 3
time step continuity errors : sum local = 7.8329694e-06, global = 9.8149972e-08, cumulative = 4.6197423e-05
ExecutionTime = 11.527282 s  ClockTime = 12 s

Time = 52s

smoothSolver:  Solving for Ux, Initial residual = 0.0013041358, Final residual = 4.3926903e-05, No Iterations 3
smoothSolver:  Solving for Uy, Initial residual = 0.012911735, Final residual = 0.00043418021, No Iterations 3
smoothSolver:  Solving for Uz, Initial residual = 0.0022464955, Final residual = 7.5912938e-05, No Iterations 3
GAMG:  Solving for p, Initial residual = 0.013279554, Final residual = 0.00010319137, No Iterations 3
time step continuity errors : sum local = 7.0174812e-06, global = 8.4949891e-08, cumulative = 4.6282373e-05
ExecutionTime = 11.727648 s  ClockTime = 12 s

Time = 53s

smoothSolver:  Solving for Ux, Initial residual = 0.0012826619, Final residual = 4.323196e-05, No Iterations 3
smoothSolver:  Solving for Uy, Initial residual = 0.012639838, Final residual = 0.00042527608, No Iterations 3
smoothSolver:  Solving for Uz, Initial residual = 0.0022059932, Final residual = 7.460197e-05, No Iterations 3
GAMG:  Solving for p, Initial residual = 0.013055293, Final residual = 9.1149919e-05, No Iterations 3
time step continuity errors : sum local = 6.1956868e-06, global = 5.4842349e-08, cumulative = 4.6337215e-05
ExecutionTime = 11.92936 s  ClockTime = 12 s

Time = 54s

smoothSolver:  Solving for Ux, Initial residual = 0.0012622003, Final residual = 4.2579284e-05, No Iterations 3
smoothSolver:  Solving for Uy, Initial residual = 0.012377242, Final residual = 0.00041670519, No Iterations 3
smoothSolver:  Solving for Uz, Initial residual = 0.0021693461, Final residual = 7.3453596e-05, No Iterations 3
GAMG:  Solving for p, Initial residual = 0.01276101, Final residual = 0.00011431854, No Iterations 2
time step continuity errors : sum local = 7.7782465e-06, global = 1.5293326e-07, cumulative = 4.6490148e-05
ExecutionTime = 12.11642 s  ClockTime = 12 s

Time = 55s

smoothSolver:  Solving for Ux, Initial residual = 0.0012421573, Final residual = 4.1951391e-05, No Iterations 3
smoothSolver:  Solving for Uy, Initial residual = 0.012118511, Final residual = 0.00040820903, No Iterations 3
smoothSolver:  Solving for Uz, Initial residual = 0.0021357898, Final residual = 7.2434496e-05, No Iterations 3
GAMG:  Solving for p, Initial residual = 0.012432129, Final residual = 8.0721804e-05, No Iterations 3
time step continuity errors : sum local = 5.5051767e-06, global = 7.0050848e-08, cumulative = 4.6560199e-05
ExecutionTime = 12.319189 s  ClockTime = 12 s

Time = 56s

smoothSolver:  Solving for Ux, Initial residual = 0.0012233164, Final residual = 4.1349068e-05, No Iterations 3
smoothSolver:  Solving for Uy, Initial residual = 0.011861804, Final residual = 0.00039972874, No Iterations 3
smoothSolver:  Solving for Uz, Initial residual = 0.0021026568, Final residual = 7.1400404e-05, No Iterations 3
GAMG:  Solving for p, Initial residual = 0.012174171, Final residual = 9.2745779e-05, No Iterations 3
time step continuity errors : sum local = 6.3356232e-06, global = 6.6594262e-08, cumulative = 4.6626793e-05
ExecutionTime = 12.522449 s  ClockTime = 13 s

Time = 57s

smoothSolver:  Solving for Ux, Initial residual = 0.0012050975, Final residual = 4.0760387e-05, No Iterations 3
smoothSolver:  Solving for Uy, Initial residual = 0.011611508, Final residual = 0.00039145195, No Iterations 3
smoothSolver:  Solving for Uz, Initial residual = 0.002069835, Final residual = 7.0357473e-05, No Iterations 3
GAMG:  Solving for p, Initial residual = 0.011947986, Final residual = 9.2548529e-05, No Iterations 3
time step continuity errors : sum local = 6.3292083e-06, global = 6.5634673e-08, cumulative = 4.6692428e-05
ExecutionTime = 12.721443 s  ClockTime = 13 s

Time = 58s

smoothSolver:  Solving for Ux, Initial residual = 0.001187518, Final residual = 4.0185363e-05, No Iterations 3
smoothSolver:  Solving for Uy, Initial residual = 0.011373546, Final residual = 0.00038353724, No Iterations 3
smoothSolver:  Solving for Uz, Initial residual = 0.002037221, Final residual = 6.930557e-05, No Iterations 3
GAMG:  Solving for p, Initial residual = 0.011743874, Final residual = 8.7754348e-05, No Iterations 3
time step continuity errors : sum local = 6.0050257e-06, global = 6.2279381e-08, cumulative = 4.6754707e-05
ExecutionTime = 12.920893 s  ClockTime = 13 s

Time = 59s

smoothSolver:  Solving for Ux, Initial residual = 0.0011705632, Final residual = 3.9628467e-05, No Iterations 3
smoothSolver:  Solving for Uy, Initial residual = 0.011147743, Final residual = 0.00037601779, No Iterations 3
smoothSolver:  Solving for Uz, Initial residual = 0.0020052118, Final residual = 6.8268784e-05, No Iterations 3
GAMG:  Solving for p, Initial residual = 0.011548933, Final residual = 8.298082e-05, No Iterations 3
time step continuity errors : sum local = 5.680837e-06, global = 5.5689298e-08, cumulative = 4.6810397e-05
ExecutionTime = 13.123519 s  ClockTime = 13 s

Time = 60s

smoothSolver:  Solving for Ux, Initial residual = 0.0011542382, Final residual = 3.90949e-05, No Iterations 3
smoothSolver:  Solving for Uy, Initial residual = 0.010930962, Final residual = 0.00036880245, No Iterations 3
smoothSolver:  Solving for Uz, Initial residual = 0.0019742895, Final residual = 6.7272171e-05, No Iterations 3
GAMG:  Solving for p, Initial residual = 0.011352668, Final residual = 7.9438489e-05, No Iterations 3
time step continuity errors : sum local = 5.4415127e-06, global = 4.8854471e-08, cumulative = 4.6859251e-05
ExecutionTime = 13.326242 s  ClockTime = 14 s

Time = 61s

smoothSolver:  Solving for Ux, Initial residual = 0.0011385389, Final residual = 3.8584031e-05, No Iterations 3
smoothSolver:  Solving for Uy, Initial residual = 0.01072112, Final residual = 0.00036183726, No Iterations 3
smoothSolver:  Solving for Uz, Initial residual = 0.001944686, Final residual = 6.6325713e-05, No Iterations 3
GAMG:  Solving for p, Initial residual = 0.01115187, Final residual = 7.6986831e-05, No Iterations 3
time step continuity errors : sum local = 5.2782082e-06, global = 4.6607397e-08, cumulative = 4.6905859e-05
ExecutionTime = 13.525526 s  ClockTime = 14 s

Time = 62s

smoothSolver:  Solving for Ux, Initial residual = 0.0011234873, Final residual = 3.8096265e-05, No Iterations 3
smoothSolver:  Solving for Uy, Initial residual = 0.010516427, Final residual = 0.00035503002, No Iterations 3
smoothSolver:  Solving for Uz, Initial residual = 0.0019163128, Final residual = 6.5422921e-05, No Iterations 3
GAMG:  Solving for p, Initial residual = 0.010952601, Final residual = 7.6725643e-05, No Iterations 3
time step continuity errors : sum local = 5.2660984e-06, global = 4.8955227e-08, cumulative = 4.6954814e-05
ExecutionTime = 13.727151 s  ClockTime = 14 s

Time = 63s

smoothSolver:  Solving for Ux, Initial residual = 0.0011090553, Final residual = 3.762731e-05, No Iterations 3
smoothSolver:  Solving for Uy, Initial residual = 0.010316963, Final residual = 0.00034840469, No Iterations 3
smoothSolver:  Solving for Uz, Initial residual = 0.0018888972, Final residual = 6.4549685e-05, No Iterations 3
GAMG:  Solving for p, Initial residual = 0.010763301, Final residual = 7.8737251e-05, No Iterations 3
time step continuity errors : sum local = 5.4103542e-06, global = 5.1758866e-08, cumulative = 4.7006573e-05
ExecutionTime = 13.925098 s  ClockTime = 14 s

Time = 64s

smoothSolver:  Solving for Ux, Initial residual = 0.0010952126, Final residual = 3.7174695e-05, No Iterations 3
smoothSolver:  Solving for Uy, Initial residual = 0.010122404, Final residual = 0.00034200467, No Iterations 3
smoothSolver:  Solving for Uz, Initial residual = 0.0018622129, Final residual = 6.3694548e-05, No Iterations 3
GAMG:  Solving for p, Initial residual = 0.010587388, Final residual = 8.0065962e-05, No Iterations 3
time step continuity errors : sum local = 5.5073777e-06, global = 5.3127061e-08, cumulative = 4.70597e-05
ExecutionTime = 14.128549 s  ClockTime = 14 s

Time = 65s

smoothSolver:  Solving for Ux, Initial residual = 0.0010818743, Final residual = 3.6737021e-05, No Iterations 3
smoothSolver:  Solving for Uy, Initial residual = 0.009934553, Final residual = 0.00033585891, No Iterations 3
smoothSolver:  Solving for Uz, Initial residual = 0.0018361418, Final residual = 6.2853841e-05, No Iterations 3
GAMG:  Solving for p, Initial residual = 0.010423312, Final residual = 7.9359903e-05, No Iterations 3
time step continuity errors : sum local = 5.4636803e-06, global = 5.3015703e-08, cumulative = 4.7112715e-05
ExecutionTime = 14.332237 s  ClockTime = 15 s

Time = 66s

smoothSolver:  Solving for Ux, Initial residual = 0.0010689837, Final residual = 3.6313749e-05, No Iterations 3
smoothSolver:  Solving for Uy, Initial residual = 0.00975392, Final residual = 0.00032992355, No Iterations 3
smoothSolver:  Solving for Uz, Initial residual = 0.0018107001, Final residual = 6.2029639e-05, No Iterations 3
GAMG:  Solving for p, Initial residual = 0.010265533, Final residual = 7.7257141e-05, No Iterations 3
time step continuity errors : sum local = 5.3231736e-06, global = 5.1334972e-08, cumulative = 4.716405e-05
ExecutionTime = 14.535409 s  ClockTime = 15 s

Time = 67s

smoothSolver:  Solving for Ux, Initial residual = 0.0010565148, Final residual = 3.5904701e-05, No Iterations 3
smoothSolver:  Solving for Uy, Initial residual = 0.0095789219, Final residual = 0.0003242207, No Iterations 3
smoothSolver:  Solving for Uz, Initial residual = 0.0017859446, Final residual = 6.1226686e-05, No Iterations 3
GAMG:  Solving for p, Initial residual = 0.010110886, Final residual = 7.4792323e-05, No Iterations 3
time step continuity errors : sum local = 5.1574964e-06, global = 4.8390794e-08, cumulative = 4.7212441e-05
ExecutionTime = 14.734942 s  ClockTime = 15 s

Time = 68s

smoothSolver:  Solving for Ux, Initial residual = 0.001044457, Final residual = 3.5510126e-05, No Iterations 3
smoothSolver:  Solving for Uy, Initial residual = 0.0094097278, Final residual = 0.0003186885, No Iterations 3
smoothSolver:  Solving for Uz, Initial residual = 0.0017619155, Final residual = 6.044753e-05, No Iterations 3
GAMG:  Solving for p, Initial residual = 0.0099580473, Final residual = 7.2486764e-05, No Iterations 3
time step continuity errors : sum local = 5.0028886e-06, global = 4.6644475e-08, cumulative = 4.7259086e-05
ExecutionTime = 14.934525 s  ClockTime = 15 s

Time = 69s

smoothSolver:  Solving for Ux, Initial residual = 0.0010328157, Final residual = 3.5131624e-05, No Iterations 3
smoothSolver:  Solving for Uy, Initial residual = 0.009246027, Final residual = 0.00031331094, No Iterations 3
smoothSolver:  Solving for Uz, Initial residual = 0.0017386057, Final residual = 5.969234e-05, No Iterations 3
GAMG:  Solving for p, Initial residual = 0.0098071438, Final residual = 7.0922016e-05, No Iterations 3
time step continuity errors : sum local = 4.8995455e-06, global = 4.5812248e-08, cumulative = 4.7304898e-05
ExecutionTime = 15.135143 s  ClockTime = 15 s

Time = 70s

smoothSolver:  Solving for Ux, Initial residual = 0.0010216189, Final residual = 3.476878e-05, No Iterations 3
smoothSolver:  Solving for Uy, Initial residual = 0.0090864728, Final residual = 0.0003080837, No Iterations 3
smoothSolver:  Solving for Uz, Initial residual = 0.0017159673, Final residual = 5.8958533e-05, No Iterations 3
GAMG:  Solving for p, Initial residual = 0.0096606134, Final residual = 7.0405683e-05, No Iterations 3
time step continuity errors : sum local = 4.8686774e-06, global = 4.5829839e-08, cumulative = 4.7350728e-05
ExecutionTime = 15.336792 s  ClockTime = 16 s

Time = 71s

smoothSolver:  Solving for Ux, Initial residual = 0.001010866, Final residual = 3.4420643e-05, No Iterations 3
smoothSolver:  Solving for Uy, Initial residual = 0.008931589, Final residual = 0.00030301515, No Iterations 3
smoothSolver:  Solving for Uz, Initial residual = 0.0016939494, Final residual = 5.8243245e-05, No Iterations 3
GAMG:  Solving for p, Initial residual = 0.0095199553, Final residual = 7.0461379e-05, No Iterations 3
time step continuity errors : sum local = 4.8772991e-06, global = 4.6160592e-08, cumulative = 4.7396888e-05
ExecutionTime = 15.538434 s  ClockTime = 16 s

Time = 72s

smoothSolver:  Solving for Ux, Initial residual = 0.0010005442, Final residual = 3.4086855e-05, No Iterations 3
smoothSolver:  Solving for Uy, Initial residual = 0.0087816203, Final residual = 0.00029809377, No Iterations 3
smoothSolver:  Solving for Uz, Initial residual = 0.0016725044, Final residual = 5.7544165e-05, No Iterations 3
GAMG:  Solving for p, Initial residual = 0.0093851197, Final residual = 7.0314135e-05, No Iterations 3
time step continuity errors : sum local = 4.8716847e-06, global = 4.6579868e-08, cumulative = 4.7443468e-05
ExecutionTime = 15.742096 s  ClockTime = 16 s

Time = 73s

smoothSolver:  Solving for Ux, Initial residual = 0.00099060644, Final residual = 3.376532e-05, No Iterations 3
smoothSolver:  Solving for Uy, Initial residual = 0.0086366358, Final residual = 0.00029333671, No Iterations 3
smoothSolver:  Solving for Uz, Initial residual = 0.0016516137, Final residual = 5.6861122e-05, No Iterations 3
GAMG:  Solving for p, Initial residual = 0.0092549687, Final residual = 6.9651329e-05, No Iterations 3
time step continuity errors : sum local = 4.830126e-06, global = 4.6422843e-08, cumulative = 4.7489891e-05
ExecutionTime = 15.94283 s  ClockTime = 16 s

Time = 74s

smoothSolver:  Solving for Ux, Initial residual = 0.00098099716, Final residual = 3.3454896e-05, No Iterations 3
smoothSolver:  Solving for Uy, Initial residual = 0.0084963505, Final residual = 0.00028872172, No Iterations 3
smoothSolver:  Solving for Uz, Initial residual = 0.0016312692, Final residual = 5.6194353e-05, No Iterations 3
GAMG:  Solving for p, Initial residual = 0.0091284003, Final residual = 6.8515389e-05, No Iterations 3
time step continuity errors : sum local = 4.7555755e-06, global = 4.5894732e-08, cumulative = 4.7535786e-05
ExecutionTime = 16.144238 s  ClockTime = 16 s

Time = 75s

smoothSolver:  Solving for Ux, Initial residual = 0.00097172918, Final residual = 3.3155819e-05, No Iterations 3
smoothSolver:  Solving for Uy, Initial residual = 0.0083602363, Final residual = 0.00028421717, No Iterations 3
smoothSolver:  Solving for Uz, Initial residual = 0.0016114513, Final residual = 5.5544121e-05, No Iterations 3
GAMG:  Solving for p, Initial residual = 0.0090054662, Final residual = 6.7153595e-05, No Iterations 3
time step continuity errors : sum local = 4.6652459e-06, global = 4.5065073e-08, cumulative = 4.7580851e-05
ExecutionTime = 16.346251 s  ClockTime = 17 s

Time = 76s

smoothSolver:  Solving for Ux, Initial residual = 0.00096278516, Final residual = 3.2867785e-05, No Iterations 3
smoothSolver:  Solving for Uy, Initial residual = 0.0082283554, Final residual = 0.00027981734, No Iterations 3
smoothSolver:  Solving for Uz, Initial residual = 0.0015921524, Final residual = 5.4910297e-05, No Iterations 3
GAMG:  Solving for p, Initial residual = 0.0088852398, Final residual = 6.5899559e-05, No Iterations 3
time step continuity errors : sum local = 4.5823327e-06, global = 4.4409794e-08, cumulative = 4.7625261e-05
ExecutionTime = 16.591353 s  ClockTime = 17 s

Time = 77s

smoothSolver:  Solving for Ux, Initial residual = 0.00095415983, Final residual = 3.2590899e-05, No Iterations 3
smoothSolver:  Solving for Uy, Initial residual = 0.0081006969, Final residual = 0.0002755174, No Iterations 3
smoothSolver:  Solving for Uz, Initial residual = 0.001573354, Final residual = 5.4292073e-05, No Iterations 3
GAMG:  Solving for p, Initial residual = 0.0087687593, Final residual = 6.4922377e-05, No Iterations 3
time step continuity errors : sum local = 4.5186016e-06, global = 4.3839482e-08, cumulative = 4.76691e-05
ExecutionTime = 16.792612 s  ClockTime = 17 s

Time = 78s

smoothSolver:  Solving for Ux, Initial residual = 0.00094586296, Final residual = 3.2324849e-05, No Iterations 3
smoothSolver:  Solving for Uy, Initial residual = 0.0079767935, Final residual = 0.00027134614, No Iterations 3
smoothSolver:  Solving for Uz, Initial residual = 0.0015550327, Final residual = 5.3688308e-05, No Iterations 3
GAMG:  Solving for p, Initial residual = 0.0086565466, Final residual = 6.4237834e-05, No Iterations 3
time step continuity errors : sum local = 4.4751548e-06, global = 4.3292815e-08, cumulative = 4.7712393e-05
ExecutionTime = 16.993006 s  ClockTime = 17 s

Time = 79s

smoothSolver:  Solving for Ux, Initial residual = 0.00093790316, Final residual = 3.2069883e-05, No Iterations 3
smoothSolver:  Solving for Uy, Initial residual = 0.0078568605, Final residual = 0.00026730607, No Iterations 3
smoothSolver:  Solving for Uz, Initial residual = 0.0015371662, Final residual = 5.3098936e-05, No Iterations 3
GAMG:  Solving for p, Initial residual = 0.0085484379, Final residual = 6.3663484e-05, No Iterations 3
time step continuity errors : sum local = 4.4392745e-06, global = 4.308169e-08, cumulative = 4.7755475e-05
ExecutionTime = 17.194694 s  ClockTime = 17 s

Time = 80s

smoothSolver:  Solving for Ux, Initial residual = 0.00093026493, Final residual = 3.1825211e-05, No Iterations 3
smoothSolver:  Solving for Uy, Initial residual = 0.0077401739, Final residual = 0.00026340054, No Iterations 3
smoothSolver:  Solving for Uz, Initial residual = 0.0015197389, Final residual = 5.2523142e-05, No Iterations 3
GAMG:  Solving for p, Initial residual = 0.0084447195, Final residual = 6.3037628e-05, No Iterations 3
time step continuity errors : sum local = 4.3996795e-06, global = 4.2990574e-08, cumulative = 4.7798465e-05
ExecutionTime = 17.399603 s  ClockTime = 18 s

Time = 81s

smoothSolver:  Solving for Ux, Initial residual = 0.00092292805, Final residual = 3.1590443e-05, No Iterations 3
smoothSolver:  Solving for Uy, Initial residual = 0.0076268425, Final residual = 0.00025961643, No Iterations 3
smoothSolver:  Solving for Uz, Initial residual = 0.0015027376, Final residual = 5.1960316e-05, No Iterations 3
GAMG:  Solving for p, Initial residual = 0.0083447469, Final residual = 6.2289696e-05, No Iterations 3
time step continuity errors : sum local = 4.3514444e-06, global = 4.2761551e-08, cumulative = 4.7841227e-05
ExecutionTime = 17.602533 s  ClockTime = 18 s

Time = 82s

smoothSolver:  Solving for Ux, Initial residual = 0.00091589508, Final residual = 3.1364954e-05, No Iterations 3
smoothSolver:  Solving for Uy, Initial residual = 0.0075171231, Final residual = 0.00025594358, No Iterations 3
smoothSolver:  Solving for Uz, Initial residual = 0.0014861468, Final residual = 5.1410253e-05, No Iterations 3
GAMG:  Solving for p, Initial residual = 0.0082463459, Final residual = 6.1393752e-05, No Iterations 3
time step continuity errors : sum local = 4.2927454e-06, global = 4.2527873e-08, cumulative = 4.7883755e-05
ExecutionTime = 17.804859 s  ClockTime = 18 s

Time = 83s

smoothSolver:  Solving for Ux, Initial residual = 0.00090915188, Final residual = 3.1148609e-05, No Iterations 3
smoothSolver:  Solving for Uy, Initial residual = 0.0074106457, Final residual = 0.00025239291, No Iterations 3
smoothSolver:  Solving for Uz, Initial residual = 0.0014699534, Final residual = 5.0872901e-05, No Iterations 3
GAMG:  Solving for p, Initial residual = 0.0081497273, Final residual = 6.0476407e-05, No Iterations 3
time step continuity errors : sum local = 4.2324419e-06, global = 4.2212744e-08, cumulative = 4.7925967e-05
ExecutionTime = 18.004926 s  ClockTime = 18 s

Time = 84s

smoothSolver:  Solving for Ux, Initial residual = 0.00090269617, Final residual = 3.094138e-05, No Iterations 3
smoothSolver:  Solving for Uy, Initial residual = 0.0073072229, Final residual = 0.00024893732, No Iterations 3
smoothSolver:  Solving for Uz, Initial residual = 0.0014541433, Final residual = 5.0347926e-05, No Iterations 3
GAMG:  Solving for p, Initial residual = 0.008054667, Final residual = 5.9580097e-05, No Iterations 3
time step continuity errors : sum local = 4.173496e-06, global = 4.1864058e-08, cumulative = 4.7967831e-05
ExecutionTime = 18.205574 s  ClockTime = 18 s

Time = 85s

smoothSolver:  Solving for Ux, Initial residual = 0.00089652099, Final residual = 3.0743589e-05, No Iterations 3
smoothSolver:  Solving for Uy, Initial residual = 0.0072070976, Final residual = 0.00024559139, No Iterations 3
smoothSolver:  Solving for Uz, Initial residual = 0.0014386995, Final residual = 4.9834762e-05, No Iterations 3
GAMG:  Solving for p, Initial residual = 0.0079629378, Final residual = 5.8793544e-05, No Iterations 3
time step continuity errors : sum local = 4.1221333e-06, global = 4.1597016e-08, cumulative = 4.8009428e-05
ExecutionTime = 18.406766 s  ClockTime = 19 s

Time = 86s

smoothSolver:  Solving for Ux, Initial residual = 0.00089064044, Final residual = 3.0555361e-05, No Iterations 3
smoothSolver:  Solving for Uy, Initial residual = 0.0071099479, Final residual = 0.00024235388, No Iterations 3
smoothSolver:  Solving for Uz, Initial residual = 0.0014236138, Final residual = 4.9333019e-05, No Iterations 3
GAMG:  Solving for p, Initial residual = 0.0078741741, Final residual = 5.8100649e-05, No Iterations 3
time step continuity errors : sum local = 4.0772404e-06, global = 4.1353766e-08, cumulative = 4.8050782e-05
ExecutionTime = 18.608453 s  ClockTime = 19 s

Time = 87s

smoothSolver:  Solving for Ux, Initial residual = 0.00088503949, Final residual = 3.0376006e-05, No Iterations 3
smoothSolver:  Solving for Uy, Initial residual = 0.007015583, Final residual = 0.00023921861, No Iterations 3
smoothSolver:  Solving for Uz, Initial residual = 0.0014088674, Final residual = 4.8842325e-05, No Iterations 3
GAMG:  Solving for p, Initial residual = 0.0077870481, Final residual = 5.7441445e-05, No Iterations 3
time step continuity errors : sum local = 4.0346113e-06, global = 4.1131592e-08, cumulative = 4.8091914e-05
ExecutionTime = 18.811255 s  ClockTime = 19 s

Time = 88s

smoothSolver:  Solving for Ux, Initial residual = 0.00087970338, Final residual = 3.0205138e-05, No Iterations 3
smoothSolver:  Solving for Uy, Initial residual = 0.0069242574, Final residual = 0.00023619489, No Iterations 3
smoothSolver:  Solving for Uz, Initial residual = 0.0013944586, Final residual = 4.8362006e-05, No Iterations 3
GAMG:  Solving for p, Initial residual = 0.0077016836, Final residual = 5.6762396e-05, No Iterations 3
time step continuity errors : sum local = 3.9904807e-06, global = 4.0938076e-08, cumulative = 4.8132852e-05
ExecutionTime = 19.014238 s  ClockTime = 19 s

Time = 89s

smoothSolver:  Solving for Ux, Initial residual = 0.00087461679, Final residual = 3.0042529e-05, No Iterations 3
smoothSolver:  Solving for Uy, Initial residual = 0.0068355118, Final residual = 0.00023327376, No Iterations 3
smoothSolver:  Solving for Uz, Initial residual = 0.0013803758, Final residual = 4.7891889e-05, No Iterations 3
GAMG:  Solving for p, Initial residual = 0.0076189927, Final residual = 5.6051893e-05, No Iterations 3
time step continuity errors : sum local = 3.9440391e-06, global = 4.0966625e-08, cumulative = 4.8173818e-05
ExecutionTime = 19.217526 s  ClockTime = 19 s

Time = 90s

smoothSolver:  Solving for Ux, Initial residual = 0.00086976387, Final residual = 2.9887456e-05, No Iterations 3
smoothSolver:  Solving for Uy, Initial residual = 0.0067494173, Final residual = 0.00023044233, No Iterations 3
smoothSolver:  Solving for Uz, Initial residual = 0.0013666132, Final residual = 4.7431779e-05, No Iterations 3
GAMG:  Solving for p, Initial residual = 0.0075397637, Final residual = 5.5322098e-05, No Iterations 3
time step continuity errors : sum local = 3.8961437e-06, global = 4.0922888e-08, cumulative = 4.8214741e-05
ExecutionTime = 19.421175 s  ClockTime = 20 s

Time = 91s

smoothSolver:  Solving for Ux, Initial residual = 0.00086514649, Final residual = 2.9739898e-05, No Iterations 3
smoothSolver:  Solving for Uy, Initial residual = 0.0066658956, Final residual = 0.00022769682, No Iterations 3
smoothSolver:  Solving for Uz, Initial residual = 0.001353158, Final residual = 4.6981875e-05, No Iterations 3
GAMG:  Solving for p, Initial residual = 0.0074624864, Final residual = 5.4591589e-05, No Iterations 3
time step continuity errors : sum local = 3.848098e-06, global = 4.0872174e-08, cumulative = 4.8255614e-05
ExecutionTime = 19.621174 s  ClockTime = 20 s

Time = 92s

smoothSolver:  Solving for Ux, Initial residual = 0.00086074779, Final residual = 2.9599487e-05, No Iterations 3
smoothSolver:  Solving for Uy, Initial residual = 0.0065848323, Final residual = 0.00022502346, No Iterations 3
smoothSolver:  Solving for Uz, Initial residual = 0.0013399944, Final residual = 4.654157e-05, No Iterations 3
GAMG:  Solving for p, Initial residual = 0.0073872003, Final residual = 5.3881058e-05, No Iterations 3
time step continuity errors : sum local = 3.8013691e-06, global = 4.0758856e-08, cumulative = 4.8296372e-05
ExecutionTime = 19.82054 s  ClockTime = 20 s

Time = 93s

smoothSolver:  Solving for Ux, Initial residual = 0.00085655235, Final residual = 2.9465435e-05, No Iterations 3
smoothSolver:  Solving for Uy, Initial residual = 0.0065061289, Final residual = 0.00022242217, No Iterations 3
smoothSolver:  Solving for Uz, Initial residual = 0.0013271125, Final residual = 4.6110355e-05, No Iterations 3
GAMG:  Solving for p, Initial residual = 0.0073142425, Final residual = 5.3207462e-05, No Iterations 3
time step continuity errors : sum local = 3.7571537e-06, global = 4.0576963e-08, cumulative = 4.8336949e-05
ExecutionTime = 20.022766 s  ClockTime = 20 s

Time = 94s

smoothSolver:  Solving for Ux, Initial residual = 0.00085255464, Final residual = 2.9337673e-05, No Iterations 3
smoothSolver:  Solving for Uy, Initial residual = 0.0064297319, Final residual = 0.00021989771, No Iterations 3
smoothSolver:  Solving for Uz, Initial residual = 0.0013145002, Final residual = 4.5688207e-05, No Iterations 3
GAMG:  Solving for p, Initial residual = 0.0072425132, Final residual = 5.2528798e-05, No Iterations 3
time step continuity errors : sum local = 3.7124972e-06, global = 4.0662156e-08, cumulative = 4.8377611e-05
ExecutionTime = 20.222689 s  ClockTime = 20 s

Time = 95s

smoothSolver:  Solving for Ux, Initial residual = 0.00084873638, Final residual = 2.9215905e-05, No Iterations 3
smoothSolver:  Solving for Uy, Initial residual = 0.0063557551, Final residual = 0.00021743426, No Iterations 3
smoothSolver:  Solving for Uz, Initial residual = 0.001302148, Final residual = 4.5274595e-05, No Iterations 3
GAMG:  Solving for p, Initial residual = 0.0071725578, Final residual = 5.1939581e-05, No Iterations 3
time step continuity errors : sum local = 3.6740843e-06, global = 4.0107944e-08, cumulative = 4.8417719e-05
ExecutionTime = 20.423492 s  ClockTime = 21 s

Time = 96s

smoothSolver:  Solving for Ux, Initial residual = 0.00084509065, Final residual = 2.9100094e-05, No Iterations 3
smoothSolver:  Solving for Uy, Initial residual = 0.0062840794, Final residual = 0.00021504665, No Iterations 3
smoothSolver:  Solving for Uz, Initial residual = 0.0012900492, Final residual = 4.4869281e-05, No Iterations 3
GAMG:  Solving for p, Initial residual = 0.0071036119, Final residual = 5.1333849e-05, No Iterations 3
time step continuity errors : sum local = 3.6344179e-06, global = 4.0054071e-08, cumulative = 4.8457774e-05
ExecutionTime = 20.624947 s  ClockTime = 21 s

Time = 97s

smoothSolver:  Solving for Ux, Initial residual = 0.0008416044, Final residual = 2.8989751e-05, No Iterations 3
smoothSolver:  Solving for Uy, Initial residual = 0.0062146292, Final residual = 0.00021272794, No Iterations 3
smoothSolver:  Solving for Uz, Initial residual = 0.0012781952, Final residual = 4.4472003e-05, No Iterations 3
GAMG:  Solving for p, Initial residual = 0.0070366729, Final residual = 5.0754404e-05, No Iterations 3
time step continuity errors : sum local = 3.5965304e-06, global = 4.0012858e-08, cumulative = 4.8497786e-05
ExecutionTime = 20.828282 s  ClockTime = 21 s

Time = 98s

smoothSolver:  Solving for Ux, Initial residual = 0.00083827052, Final residual = 2.8884385e-05, No Iterations 3
smoothSolver:  Solving for Uy, Initial residual = 0.0061474397, Final residual = 0.00021047256, No Iterations 3
smoothSolver:  Solving for Uz, Initial residual = 0.0012665777, Final residual = 4.408236e-05, No Iterations 3
GAMG:  Solving for p, Initial residual = 0.0069715022, Final residual = 5.0192059e-05, No Iterations 3
time step continuity errors : sum local = 3.5597801e-06, global = 4.0005036e-08, cumulative = 4.8537791e-05
ExecutionTime = 21.030177 s  ClockTime = 21 s

Time = 99s

smoothSolver:  Solving for Ux, Initial residual = 0.00083508145, Final residual = 2.8783448e-05, No Iterations 3
smoothSolver:  Solving for Uy, Initial residual = 0.006082405, Final residual = 0.0002082934, No Iterations 3
smoothSolver:  Solving for Uz, Initial residual = 0.0012551934, Final residual = 4.3700607e-05, No Iterations 3
GAMG:  Solving for p, Initial residual = 0.006907172, Final residual = 4.9625894e-05, No Iterations 3
time step continuity errors : sum local = 3.5226828e-06, global = 4.0365988e-08, cumulative = 4.8578157e-05
ExecutionTime = 21.232246 s  ClockTime = 21 s

Time = 100s

smoothSolver:  Solving for Ux, Initial residual = 0.00083201541, Final residual = 2.8686558e-05, No Iterations 3
smoothSolver:  Solving for Uy, Initial residual = 0.0060192983, Final residual = 0.00020616232, No Iterations 3
smoothSolver:  Solving for Uz, Initial residual = 0.0012440371, Final residual = 4.3326478e-05, No Iterations 3
GAMG:  Solving for p, Initial residual = 0.0068441647, Final residual = 4.9138392e-05, No Iterations 3
time step continuity errors : sum local = 3.4911004e-06, global = 3.9944859e-08, cumulative = 4.8618102e-05
ExecutionTime = 21.435076 s  ClockTime = 22 s

Time = 101s

smoothSolver:  Solving for Ux, Initial residual = 0.00082906654, Final residual = 2.8593848e-05, No Iterations 3
smoothSolver:  Solving for Uy, Initial residual = 0.0059578314, Final residual = 0.0002040705, No Iterations 3
smoothSolver:  Solving for Uz, Initial residual = 0.0012330991, Final residual = 4.295987e-05, No Iterations 3
GAMG:  Solving for p, Initial residual = 0.0067823149, Final residual = 4.8591957e-05, No Iterations 3
time step continuity errors : sum local = 3.4552537e-06, global = 3.9884034e-08, cumulative = 4.8657986e-05
ExecutionTime = 21.638475 s  ClockTime = 22 s

Time = 102s

smoothSolver:  Solving for Ux, Initial residual = 0.00082624201, Final residual = 2.8504556e-05, No Iterations 3
smoothSolver:  Solving for Uy, Initial residual = 0.0058981334, Final residual = 0.00020203939, No Iterations 3
smoothSolver:  Solving for Uz, Initial residual = 0.0012223734, Final residual = 4.2600184e-05, No Iterations 3
GAMG:  Solving for p, Initial residual = 0.0067219184, Final residual = 4.7996506e-05, No Iterations 3
time step continuity errors : sum local = 3.4158374e-06, global = 4.0184524e-08, cumulative = 4.8698171e-05
ExecutionTime = 21.839618 s  ClockTime = 22 s

Time = 103s

smoothSolver:  Solving for Ux, Initial residual = 0.00082352437, Final residual = 2.841859e-05, No Iterations 3
smoothSolver:  Solving for Uy, Initial residual = 0.0058404007, Final residual = 0.00020006223, No Iterations 3
smoothSolver:  Solving for Uz, Initial residual = 0.0012118548, Final residual = 4.2247322e-05, No Iterations 3
GAMG:  Solving for p, Initial residual = 0.0066630619, Final residual = 4.7486225e-05, No Iterations 3
time step continuity errors : sum local = 3.3824082e-06, global = 3.969991e-08, cumulative = 4.8737871e-05
ExecutionTime = 22.042316 s  ClockTime = 22 s

Time = 104s

smoothSolver:  Solving for Ux, Initial residual = 0.00082091267, Final residual = 2.8335425e-05, No Iterations 3
smoothSolver:  Solving for Uy, Initial residual = 0.0057842323, Final residual = 0.00019814036, No Iterations 3
smoothSolver:  Solving for Uz, Initial residual = 0.001201528, Final residual = 4.190123e-05, No Iterations 3
GAMG:  Solving for p, Initial residual = 0.0066058358, Final residual = 4.6955572e-05, No Iterations 3
time step continuity errors : sum local = 3.3474518e-06, global = 3.9591582e-08, cumulative = 4.8777462e-05
ExecutionTime = 22.243012 s  ClockTime = 23 s

Time = 105s

smoothSolver:  Solving for Ux, Initial residual = 0.00081840203, Final residual = 2.8254936e-05, No Iterations 3
smoothSolver:  Solving for Uy, Initial residual = 0.0057293439, Final residual = 0.00019627495, No Iterations 3
smoothSolver:  Solving for Uz, Initial residual = 0.0011913911, Final residual = 4.1561872e-05, No Iterations 3
GAMG:  Solving for p, Initial residual = 0.0065511668, Final residual = 4.6435439e-05, No Iterations 3
time step continuity errors : sum local = 3.313177e-06, global = 3.9871415e-08, cumulative = 4.8817334e-05
ExecutionTime = 22.445821 s  ClockTime = 23 s

Time = 106s

smoothSolver:  Solving for Ux, Initial residual = 0.00081598158, Final residual = 2.8176543e-05, No Iterations 3
smoothSolver:  Solving for Uy, Initial residual = 0.0056757121, Final residual = 0.00019447193, No Iterations 3
smoothSolver:  Solving for Uz, Initial residual = 0.0011814424, Final residual = 4.1229063e-05, No Iterations 3
GAMG:  Solving for p, Initial residual = 0.0064984245, Final residual = 4.5993539e-05, No Iterations 3
time step continuity errors : sum local = 3.2844176e-06, global = 3.9866163e-08, cumulative = 4.88572e-05
ExecutionTime = 22.647451 s  ClockTime = 23 s

Time = 107s

smoothSolver:  Solving for Ux, Initial residual = 0.00081364982, Final residual = 2.8100081e-05, No Iterations 3
smoothSolver:  Solving for Uy, Initial residual = 0.0056232257, Final residual = 0.00019270328, No Iterations 3
smoothSolver:  Solving for Uz, Initial residual = 0.0011716746, Final residual = 4.0902397e-05, No Iterations 3
GAMG:  Solving for p, Initial residual = 0.006447696, Final residual = 4.5611035e-05, No Iterations 3
time step continuity errors : sum local = 3.2598435e-06, global = 3.9457484e-08, cumulative = 4.8896657e-05
ExecutionTime = 22.848668 s  ClockTime = 23 s

Time = 108s

smoothSolver:  Solving for Ux, Initial residual = 0.00081141189, Final residual = 2.8025516e-05, No Iterations 3
smoothSolver:  Solving for Uy, Initial residual = 0.0055721865, Final residual = 0.00019097135, No Iterations 3
smoothSolver:  Solving for Uz, Initial residual = 0.0011620856, Final residual = 4.0581817e-05, No Iterations 3
GAMG:  Solving for p, Initial residual = 0.0063980886, Final residual = 4.5128884e-05, No Iterations 3
time step continuity errors : sum local = 3.2280909e-06, global = 3.9854194e-08, cumulative = 4.8936512e-05
ExecutionTime = 23.050301 s  ClockTime = 23 s

Time = 109s

smoothSolver:  Solving for Ux, Initial residual = 0.0008092632, Final residual = 2.79531e-05, No Iterations 3
smoothSolver:  Solving for Uy, Initial residual = 0.0055226434, Final residual = 0.0001892805, No Iterations 3
smoothSolver:  Solving for Uz, Initial residual = 0.0011526657, Final residual = 4.0266871e-05, No Iterations 3
GAMG:  Solving for p, Initial residual = 0.0063482811, Final residual = 4.4756522e-05, No Iterations 3
time step continuity errors : sum local = 3.2041358e-06, global = 3.940176e-08, cumulative = 4.8975913e-05
ExecutionTime = 23.253219 s  ClockTime = 24 s

Time = 110s

smoothSolver:  Solving for Ux, Initial residual = 0.00080719278, Final residual = 2.7882669e-05, No Iterations 3
smoothSolver:  Solving for Uy, Initial residual = 0.0054743678, Final residual = 0.00018763178, No Iterations 3
smoothSolver:  Solving for Uz, Initial residual = 0.0011434078, Final residual = 3.9957458e-05, No Iterations 3
GAMG:  Solving for p, Initial residual = 0.006299123, Final residual = 4.4345456e-05, No Iterations 3
time step continuity errors : sum local = 3.1773501e-06, global = 3.9274966e-08, cumulative = 4.9015188e-05
ExecutionTime = 23.455517 s  ClockTime = 24 s

Time = 111s

smoothSolver:  Solving for Ux, Initial residual = 0.00080519461, Final residual = 2.7813972e-05, No Iterations 3
smoothSolver:  Solving for Uy, Initial residual = 0.0054270183, Final residual = 0.00018602116, No Iterations 3
smoothSolver:  Solving for Uz, Initial residual = 0.001134305, Final residual = 3.9653313e-05, No Iterations 3
GAMG:  Solving for p, Initial residual = 0.0062499897, Final residual = 4.3957318e-05, No Iterations 3
time step continuity errors : sum local = 3.1521576e-06, global = 3.9080718e-08, cumulative = 4.9054269e-05
ExecutionTime = 23.65659 s  ClockTime = 24 s

Time = 112s

smoothSolver:  Solving for Ux, Initial residual = 0.0008032576, Final residual = 2.7746818e-05, No Iterations 3
smoothSolver:  Solving for Uy, Initial residual = 0.0053804113, Final residual = 0.00018443978, No Iterations 3
smoothSolver:  Solving for Uz, Initial residual = 0.0011253578, Final residual = 3.9354241e-05, No Iterations 3
GAMG:  Solving for p, Initial residual = 0.0062027373, Final residual = 4.3542694e-05, No Iterations 3
time step continuity errors : sum local = 3.1250143e-06, global = 3.9294583e-08, cumulative = 4.9093564e-05
ExecutionTime = 23.85885 s  ClockTime = 24 s

Time = 113s

smoothSolver:  Solving for Ux, Initial residual = 0.00080137073, Final residual = 2.7681402e-05, No Iterations 3
smoothSolver:  Solving for Uy, Initial residual = 0.0053345897, Final residual = 0.00018288467, No Iterations 3
smoothSolver:  Solving for Uz, Initial residual = 0.0011165584, Final residual = 3.9060218e-05, No Iterations 3
GAMG:  Solving for p, Initial residual = 0.0061572345, Final residual = 4.3257713e-05, No Iterations 3
time step continuity errors : sum local = 3.1071279e-06, global = 3.8771305e-08, cumulative = 4.9132335e-05
ExecutionTime = 24.070272 s  ClockTime = 24 s

Time = 114s

smoothSolver:  Solving for Ux, Initial residual = 0.00079954818, Final residual = 2.7617945e-05, No Iterations 3
smoothSolver:  Solving for Uy, Initial residual = 0.0052893441, Final residual = 0.00018135702, No Iterations 3
smoothSolver:  Solving for Uz, Initial residual = 0.0011079049, Final residual = 3.8771401e-05, No Iterations 3
GAMG:  Solving for p, Initial residual = 0.0061124886, Final residual = 4.2928376e-05, No Iterations 3
time step continuity errors : sum local = 3.0860023e-06, global = 3.8702559e-08, cumulative = 4.9171037e-05
ExecutionTime = 24.280315 s  ClockTime = 25 s

Time = 115s

smoothSolver:  Solving for Ux, Initial residual = 0.00079778325, Final residual = 2.7556036e-05, No Iterations 3
smoothSolver:  Solving for Uy, Initial residual = 0.0052448365, Final residual = 0.00017984719, No Iterations 3
smoothSolver:  Solving for Uz, Initial residual = 0.0010993962, Final residual = 3.8487586e-05, No Iterations 3
GAMG:  Solving for p, Initial residual = 0.0060687958, Final residual = 4.2605995e-05, No Iterations 3
time step continuity errors : sum local = 3.0653274e-06, global = 3.8655284e-08, cumulative = 4.9209693e-05
ExecutionTime = 24.481144 s  ClockTime = 25 s

Time = 116s

smoothSolver:  Solving for Ux, Initial residual = 0.00079607491, Final residual = 2.7495581e-05, No Iterations 3
smoothSolver:  Solving for Uy, Initial residual = 0.0052011761, Final residual = 0.00017835603, No Iterations 3
smoothSolver:  Solving for Uz, Initial residual = 0.001091026, Final residual = 3.8208373e-05, No Iterations 3
GAMG:  Solving for p, Initial residual = 0.0060270091, Final residual = 4.232163e-05, No Iterations 3
time step continuity errors : sum local = 3.0473427e-06, global = 3.8809212e-08, cumulative = 4.9248502e-05
ExecutionTime = 24.68161 s  ClockTime = 25 s

Time = 117s

smoothSolver:  Solving for Ux, Initial residual = 0.00079442533, Final residual = 2.7436961e-05, No Iterations 3
smoothSolver:  Solving for Uy, Initial residual = 0.0051582875, Final residual = 0.00017689043, No Iterations 3
smoothSolver:  Solving for Uz, Initial residual = 0.0010827966, Final residual = 3.7933929e-05, No Iterations 3
GAMG:  Solving for p, Initial residual = 0.0059871887, Final residual = 4.2050627e-05, No Iterations 3
time step continuity errors : sum local = 3.0302812e-06, global = 3.8910105e-08, cumulative = 4.9287412e-05
ExecutionTime = 24.882524 s  ClockTime = 25 s

Time = 118s

smoothSolver:  Solving for Ux, Initial residual = 0.00079282898, Final residual = 2.7380066e-05, No Iterations 3
smoothSolver:  Solving for Uy, Initial residual = 0.005116281, Final residual = 0.00017544435, No Iterations 3
smoothSolver:  Solving for Uz, Initial residual = 0.0010747056, Final residual = 3.7663922e-05, No Iterations 3
GAMG:  Solving for p, Initial residual = 0.0059473575, Final residual = 4.1799178e-05, No Iterations 3
time step continuity errors : sum local = 3.0145903e-06, global = 3.9004409e-08, cumulative = 4.9326416e-05
ExecutionTime = 25.082177 s  ClockTime = 25 s

Time = 119s

smoothSolver:  Solving for Ux, Initial residual = 0.00079127416, Final residual = 2.7324636e-05, No Iterations 3
smoothSolver:  Solving for Uy, Initial residual = 0.0050750877, Final residual = 0.00017402799, No Iterations 3
smoothSolver:  Solving for Uz, Initial residual = 0.0010667454, Final residual = 3.7398238e-05, No Iterations 3
GAMG:  Solving for p, Initial residual = 0.0059080191, Final residual = 4.1560055e-05, No Iterations 3
time step continuity errors : sum local = 2.9997533e-06, global = 3.9028781e-08, cumulative = 4.9365445e-05
ExecutionTime = 25.281788 s  ClockTime = 26 s

Time = 120s

smoothSolver:  Solving for Ux, Initial residual = 0.0007897718, Final residual = 2.7270986e-05, No Iterations 3
smoothSolver:  Solving for Uy, Initial residual = 0.0050346156, Final residual = 0.0001726412, No Iterations 3
smoothSolver:  Solving for Uz, Initial residual = 0.0010589204, Final residual = 3.7137123e-05, No Iterations 3
GAMG:  Solving for p, Initial residual = 0.005870128, Final residual = 4.1320392e-05, No Iterations 3
time step continuity errors : sum local = 2.9848428e-06, global = 3.8945622e-08, cumulative = 4.9404391e-05
ExecutionTime = 25.485176 s  ClockTime = 26 s

Time = 121s

smoothSolver:  Solving for Ux, Initial residual = 0.0007883072, Final residual = 2.7218638e-05, No Iterations 3
smoothSolver:  Solving for Uy, Initial residual = 0.0049948337, Final residual = 0.00017127573, No Iterations 3
smoothSolver:  Solving for Uz, Initial residual = 0.0010512169, Final residual = 3.6880036e-05, No Iterations 3
GAMG:  Solving for p, Initial residual = 0.0058325792, Final residual = 4.1086905e-05, No Iterations 3
time step continuity errors : sum local = 2.9703472e-06, global = 3.8799597e-08, cumulative = 4.944319e-05
ExecutionTime = 25.688255 s  ClockTime = 26 s

Time = 122s

smoothSolver:  Solving for Ux, Initial residual = 0.00078687474, Final residual = 2.7167531e-05, No Iterations 3
smoothSolver:  Solving for Uy, Initial residual = 0.0049556384, Final residual = 0.00016993273, No Iterations 3
smoothSolver:  Solving for Uz, Initial residual = 0.0010436341, Final residual = 3.6626747e-05, No Iterations 3
GAMG:  Solving for p, Initial residual = 0.0057946107, Final residual = 4.0830619e-05, No Iterations 3
time step continuity errors : sum local = 2.9541666e-06, global = 3.8528984e-08, cumulative = 4.9481719e-05
ExecutionTime = 25.889273 s  ClockTime = 26 s

Time = 123s

smoothSolver:  Solving for Ux, Initial residual = 0.00078548168, Final residual = 2.7117412e-05, No Iterations 3
smoothSolver:  Solving for Uy, Initial residual = 0.0049169254, Final residual = 0.00016861676, No Iterations 3
smoothSolver:  Solving for Uz, Initial residual = 0.0010361635, Final residual = 3.6377696e-05, No Iterations 3
GAMG:  Solving for p, Initial residual = 0.0057575867, Final residual = 4.0577402e-05, No Iterations 3
time step continuity errors : sum local = 2.9381709e-06, global = 3.823527e-08, cumulative = 4.9519955e-05
ExecutionTime = 26.090333 s  ClockTime = 26 s

Time = 124s

smoothSolver:  Solving for Ux, Initial residual = 0.00078412941, Final residual = 2.7068402e-05, No Iterations 3
smoothSolver:  Solving for Uy, Initial residual = 0.004878641, Final residual = 0.00016731526, No Iterations 3
smoothSolver:  Solving for Uz, Initial residual = 0.0010288051, Final residual = 3.6132317e-05, No Iterations 3
GAMG:  Solving for p, Initial residual = 0.0057205789, Final residual = 4.0325051e-05, No Iterations 3
time step continuity errors : sum local = 2.9222026e-06, global = 3.7952672e-08, cumulative = 4.9557907e-05
ExecutionTime = 26.292297 s  ClockTime = 27 s

Time = 125s

smoothSolver:  Solving for Ux, Initial residual = 0.00078280134, Final residual = 2.7020486e-05, No Iterations 3
smoothSolver:  Solving for Uy, Initial residual = 0.0048409073, Final residual = 0.00016603279, No Iterations 3
smoothSolver:  Solving for Uz, Initial residual = 0.0010215552, Final residual = 3.5890487e-05, No Iterations 3
GAMG:  Solving for p, Initial residual = 0.0056843798, Final residual = 4.0071784e-05, No Iterations 3
time step continuity errors : sum local = 2.9061284e-06, global = 3.7694691e-08, cumulative = 4.9595602e-05
ExecutionTime = 26.495936 s  ClockTime = 27 s

Time = 126s

smoothSolver:  Solving for Ux, Initial residual = 0.00078150072, Final residual = 2.6973792e-05, No Iterations 3
smoothSolver:  Solving for Uy, Initial residual = 0.0048035358, Final residual = 0.00016476792, No Iterations 3
smoothSolver:  Solving for Uz, Initial residual = 0.0010144087, Final residual = 3.5651962e-05, No Iterations 3
GAMG:  Solving for p, Initial residual = 0.0056489118, Final residual = 3.9751644e-05, No Iterations 3
time step continuity errors : sum local = 2.8851656e-06, global = 3.8836813e-08, cumulative = 4.9634439e-05
ExecutionTime = 26.698281 s  ClockTime = 27 s

Time = 127s

smoothSolver:  Solving for Ux, Initial residual = 0.00078023298, Final residual = 2.6928154e-05, No Iterations 3
smoothSolver:  Solving for Uy, Initial residual = 0.0047667363, Final residual = 0.00016351635, No Iterations 3
smoothSolver:  Solving for Uz, Initial residual = 0.0010073671, Final residual = 3.5416837e-05, No Iterations 3
GAMG:  Solving for p, Initial residual = 0.0056149618, Final residual = 3.9522849e-05, No Iterations 3
time step continuity errors : sum local = 2.8708014e-06, global = 3.9021861e-08, cumulative = 4.9673461e-05
ExecutionTime = 26.898131 s  ClockTime = 27 s

Time = 128s

smoothSolver:  Solving for Ux, Initial residual = 0.00077900078, Final residual = 2.6883437e-05, No Iterations 3
smoothSolver:  Solving for Uy, Initial residual = 0.00473034, Final residual = 0.00016227724, No Iterations 3
smoothSolver:  Solving for Uz, Initial residual = 0.0010004265, Final residual = 3.518487e-05, No Iterations 3
GAMG:  Solving for p, Initial residual = 0.0055822418, Final residual = 3.9327121e-05, No Iterations 3
time step continuity errors : sum local = 2.8588048e-06, global = 3.9216272e-08, cumulative = 4.9712677e-05
ExecutionTime = 27.100664 s  ClockTime = 27 s

Time = 129s

smoothSolver:  Solving for Ux, Initial residual = 0.0007777966, Final residual = 2.6839385e-05, No Iterations 3
smoothSolver:  Solving for Uy, Initial residual = 0.0046946398, Final residual = 0.00016106035, No Iterations 3
smoothSolver:  Solving for Uz, Initial residual = 0.00099358412, Final residual = 3.4955971e-05, No Iterations 3
GAMG:  Solving for p, Initial residual = 0.0055505908, Final residual = 3.9217354e-05, No Iterations 3
time step continuity errors : sum local = 2.8530346e-06, global = 3.9354584e-08, cumulative = 4.9752032e-05
ExecutionTime = 27.302276 s  ClockTime = 28 s

Time = 130s

smoothSolver:  Solving for Ux, Initial residual = 0.00077662648, Final residual = 2.6796778e-05, No Iterations 3
smoothSolver:  Solving for Uy, Initial residual = 0.0046596482, Final residual = 0.000159861, No Iterations 3
[...]
GAMG:  Solving for p, Initial residual = 1.3795926e-05, Final residual = 8.8299868e-08, No Iterations 2
time step continuity errors : sum local = 7.4436832e-09, global = -6.6205474e-10, cumulative = 5.409481e-05
ExecutionTime = 230.54635 s  ClockTime = 233 s

Time = 1177s

smoothSolver:  Solving for Ux, Initial residual = 3.3582975e-06, Final residual = 1.2685266e-07, No Iterations 3
smoothSolver:  Solving for Uy, Initial residual = 9.4019947e-06, Final residual = 3.4597311e-07, No Iterations 3
smoothSolver:  Solving for Uz, Initial residual = 2.0396274e-06, Final residual = 7.6083588e-08, No Iterations 3
GAMG:  Solving for p, Initial residual = 1.365595e-05, Final residual = 8.7370141e-08, No Iterations 2
time step continuity errors : sum local = 7.3653016e-09, global = -6.6197325e-10, cumulative = 5.4094148e-05
ExecutionTime = 230.73911 s  ClockTime = 233 s

Time = 1178s

smoothSolver:  Solving for Ux, Initial residual = 3.3237001e-06, Final residual = 1.2555424e-07, No Iterations 3
smoothSolver:  Solving for Uy, Initial residual = 9.3390355e-06, Final residual = 3.4390099e-07, No Iterations 3
smoothSolver:  Solving for Uz, Initial residual = 2.0183623e-06, Final residual = 7.529639e-08, No Iterations 3
GAMG:  Solving for p, Initial residual = 1.3517368e-05, Final residual = 8.6452884e-08, No Iterations 2
time step continuity errors : sum local = 7.2879713e-09, global = -6.6190168e-10, cumulative = 5.4093486e-05
ExecutionTime = 230.92652 s  ClockTime = 233 s

Time = 1179s

smoothSolver:  Solving for Ux, Initial residual = 3.2894584e-06, Final residual = 1.2426959e-07, No Iterations 3
smoothSolver:  Solving for Uy, Initial residual = 9.2764033e-06, Final residual = 3.4182355e-07, No Iterations 3
smoothSolver:  Solving for Uz, Initial residual = 1.9973137e-06, Final residual = 7.4518e-08, No Iterations 3
GAMG:  Solving for p, Initial residual = 1.3380178e-05, Final residual = 8.5545774e-08, No Iterations 2
time step continuity errors : sum local = 7.2114966e-09, global = -6.6182697e-10, cumulative = 5.4092825e-05
ExecutionTime = 231.1175 s  ClockTime = 233 s

Time = 1180s

smoothSolver:  Solving for Ux, Initial residual = 3.2555545e-06, Final residual = 1.229979e-07, No Iterations 3
smoothSolver:  Solving for Uy, Initial residual = 9.2138691e-06, Final residual = 3.3973677e-07, No Iterations 3
smoothSolver:  Solving for Uz, Initial residual = 1.9764805e-06, Final residual = 7.3747981e-08, No Iterations 3
GAMG:  Solving for p, Initial residual = 1.3244401e-05, Final residual = 8.4646912e-08, No Iterations 2
time step continuity errors : sum local = 7.1357174e-09, global = -6.617387e-10, cumulative = 5.4092163e-05
ExecutionTime = 231.31001 s  ClockTime = 233 s

Time = 1181s

smoothSolver:  Solving for Ux, Initial residual = 3.2219837e-06, Final residual = 1.2173997e-07, No Iterations 3
smoothSolver:  Solving for Uy, Initial residual = 9.1513966e-06, Final residual = 3.3763869e-07, No Iterations 3
smoothSolver:  Solving for Uz, Initial residual = 1.9558647e-06, Final residual = 7.2986205e-08, No Iterations 3
GAMG:  Solving for p, Initial residual = 1.3110056e-05, Final residual = 8.3757178e-08, No Iterations 2
time step continuity errors : sum local = 7.0607078e-09, global = -6.616279e-10, cumulative = 5.4091501e-05
ExecutionTime = 231.50389 s  ClockTime = 234 s

Time = 1182s

smoothSolver:  Solving for Ux, Initial residual = 3.1887526e-06, Final residual = 1.2049527e-07, No Iterations 3
smoothSolver:  Solving for Uy, Initial residual = 9.08903e-06, Final residual = 3.3553551e-07, No Iterations 3
smoothSolver:  Solving for Uz, Initial residual = 1.9354594e-06, Final residual = 7.2232293e-08, No Iterations 3
GAMG:  Solving for p, Initial residual = 1.2977099e-05, Final residual = 8.2877282e-08, No Iterations 2
time step continuity errors : sum local = 6.9865277e-09, global = -6.6148963e-10, cumulative = 5.409084e-05
ExecutionTime = 231.69258 s  ClockTime = 234 s

Time = 1183s

smoothSolver:  Solving for Ux, Initial residual = 3.1558494e-06, Final residual = 1.1926329e-07, No Iterations 3
smoothSolver:  Solving for Uy, Initial residual = 9.0266178e-06, Final residual = 3.3342872e-07, No Iterations 3
smoothSolver:  Solving for Uz, Initial residual = 1.9152619e-06, Final residual = 7.1486522e-08, No Iterations 3
GAMG:  Solving for p, Initial residual = 1.2845523e-05, Final residual = 8.2005964e-08, No Iterations 2
time step continuity errors : sum local = 6.9130708e-09, global = -6.6132133e-10, cumulative = 5.4090178e-05
ExecutionTime = 231.88531 s  ClockTime = 234 s

Time = 1184s

smoothSolver:  Solving for Ux, Initial residual = 3.1232696e-06, Final residual = 1.1804387e-07, No Iterations 3
smoothSolver:  Solving for Uy, Initial residual = 8.964291e-06, Final residual = 3.3133129e-07, No Iterations 3
smoothSolver:  Solving for Uz, Initial residual = 1.8952728e-06, Final residual = 7.0748646e-08, No Iterations 3
GAMG:  Solving for p, Initial residual = 1.2715136e-05, Final residual = 8.1146201e-08, No Iterations 2
time step continuity errors : sum local = 6.8405881e-09, global = -6.6115637e-10, cumulative = 5.4089517e-05
ExecutionTime = 232.07604 s  ClockTime = 234 s

Time = 1185s

smoothSolver:  Solving for Ux, Initial residual = 3.0910123e-06, Final residual = 1.1683732e-07, No Iterations 3
smoothSolver:  Solving for Uy, Initial residual = 8.9021007e-06, Final residual = 3.2922354e-07, No Iterations 3
smoothSolver:  Solving for Uz, Initial residual = 1.8754897e-06, Final residual = 7.0018672e-08, No Iterations 3
GAMG:  Solving for p, Initial residual = 1.258587e-05, Final residual = 8.0296022e-08, No Iterations 2
time step continuity errors : sum local = 6.7689135e-09, global = -6.6093946e-10, cumulative = 5.4088856e-05
ExecutionTime = 232.27022 s  ClockTime = 234 s

Time = 1186s

smoothSolver:  Solving for Ux, Initial residual = 3.059068e-06, Final residual = 1.1564417e-07, No Iterations 3
smoothSolver:  Solving for Uy, Initial residual = 8.8398874e-06, Final residual = 3.2711389e-07, No Iterations 3
smoothSolver:  Solving for Uz, Initial residual = 1.8558987e-06, Final residual = 6.9296694e-08, No Iterations 3
GAMG:  Solving for p, Initial residual = 1.2457763e-05, Final residual = 7.9455202e-08, No Iterations 2
time step continuity errors : sum local = 6.698028e-09, global = -6.6068786e-10, cumulative = 5.4088196e-05
ExecutionTime = 232.45859 s  ClockTime = 235 s

Time = 1187s

smoothSolver:  Solving for Ux, Initial residual = 3.0274468e-06, Final residual = 1.1446371e-07, No Iterations 3
smoothSolver:  Solving for Uy, Initial residual = 8.7778383e-06, Final residual = 3.249959e-07, No Iterations 3
smoothSolver:  Solving for Uz, Initial residual = 1.8365076e-06, Final residual = 6.8582017e-08, No Iterations 3
GAMG:  Solving for p, Initial residual = 1.2330949e-05, Final residual = 7.8621403e-08, No Iterations 2
time step continuity errors : sum local = 6.6277345e-09, global = -6.6038888e-10, cumulative = 5.4087535e-05
ExecutionTime = 232.64803 s  ClockTime = 235 s

Time = 1188s

smoothSolver:  Solving for Ux, Initial residual = 2.9961429e-06, Final residual = 1.1329562e-07, No Iterations 3
smoothSolver:  Solving for Uy, Initial residual = 8.715864e-06, Final residual = 3.2286381e-07, No Iterations 3
smoothSolver:  Solving for Uz, Initial residual = 1.8173136e-06, Final residual = 6.7874791e-08, No Iterations 3
GAMG:  Solving for p, Initial residual = 1.2205418e-05, Final residual = 7.7794702e-08, No Iterations 2
time step continuity errors : sum local = 6.5580394e-09, global = -6.6003325e-10, cumulative = 5.4086875e-05
ExecutionTime = 232.83826 s  ClockTime = 235 s

Time = 1189s

smoothSolver:  Solving for Ux, Initial residual = 2.9651521e-06, Final residual = 1.1213953e-07, No Iterations 3
smoothSolver:  Solving for Uy, Initial residual = 8.6540025e-06, Final residual = 3.2072599e-07, No Iterations 3
smoothSolver:  Solving for Uz, Initial residual = 1.7983151e-06, Final residual = 6.7174996e-08, No Iterations 3
GAMG:  Solving for p, Initial residual = 1.2081236e-05, Final residual = 7.6974407e-08, No Iterations 2
time step continuity errors : sum local = 6.4888845e-09, global = -6.5962483e-10, cumulative = 5.4086215e-05
ExecutionTime = 233.02672 s  ClockTime = 235 s

Time = 1190s

smoothSolver:  Solving for Ux, Initial residual = 2.9344627e-06, Final residual = 1.109949e-07, No Iterations 3
smoothSolver:  Solving for Uy, Initial residual = 8.5920933e-06, Final residual = 3.1856439e-07, No Iterations 3
smoothSolver:  Solving for Uz, Initial residual = 1.7795129e-06, Final residual = 6.6482819e-08, No Iterations 3
GAMG:  Solving for p, Initial residual = 1.1958354e-05, Final residual = 7.616071e-08, No Iterations 2
time step continuity errors : sum local = 6.420286e-09, global = -6.5916037e-10, cumulative = 5.4085556e-05
ExecutionTime = 233.21894 s  ClockTime = 235 s

Time = 1191s

smoothSolver:  Solving for Ux, Initial residual = 2.9040602e-06, Final residual = 1.0986193e-07, No Iterations 3
smoothSolver:  Solving for Uy, Initial residual = 8.5301131e-06, Final residual = 3.1638025e-07, No Iterations 3
smoothSolver:  Solving for Uz, Initial residual = 1.7608899e-06, Final residual = 6.5797613e-08, No Iterations 3
GAMG:  Solving for p, Initial residual = 1.1836696e-05, Final residual = 7.5351612e-08, No Iterations 2
time step continuity errors : sum local = 6.3520752e-09, global = -6.5861377e-10, cumulative = 5.4084898e-05
ExecutionTime = 233.40935 s  ClockTime = 236 s

Time = 1192s

smoothSolver:  Solving for Ux, Initial residual = 2.8739534e-06, Final residual = 1.0874105e-07, No Iterations 3
smoothSolver:  Solving for Uy, Initial residual = 8.4682717e-06, Final residual = 3.14184e-07, No Iterations 3
smoothSolver:  Solving for Uz, Initial residual = 1.7424632e-06, Final residual = 6.5119926e-08, No Iterations 3
GAMG:  Solving for p, Initial residual = 1.1716314e-05, Final residual = 7.4552904e-08, No Iterations 2
time step continuity errors : sum local = 6.2847404e-09, global = -6.5802274e-10, cumulative = 5.408424e-05
ExecutionTime = 233.59772 s  ClockTime = 236 s

Time = 1193s

smoothSolver:  Solving for Ux, Initial residual = 2.8441285e-06, Final residual = 1.0763188e-07, No Iterations 3
smoothSolver:  Solving for Uy, Initial residual = 8.4065013e-06, Final residual = 3.1197461e-07, No Iterations 3
smoothSolver:  Solving for Uz, Initial residual = 1.7242176e-06, Final residual = 6.4449702e-08, No Iterations 3
GAMG:  Solving for p, Initial residual = 1.159716e-05, Final residual = 7.376337e-08, No Iterations 2
time step continuity errors : sum local = 6.218179e-09, global = -6.5737077e-10, cumulative = 5.4083582e-05
ExecutionTime = 233.7887 s  ClockTime = 236 s

Time = 1194s

smoothSolver:  Solving for Ux, Initial residual = 2.814601e-06, Final residual = 1.0653484e-07, No Iterations 3
smoothSolver:  Solving for Uy, Initial residual = 8.3447695e-06, Final residual = 3.0976172e-07, No Iterations 3
smoothSolver:  Solving for Uz, Initial residual = 1.7061508e-06, Final residual = 6.3786736e-08, No Iterations 3
GAMG:  Solving for p, Initial residual = 1.147915e-05, Final residual = 7.2981728e-08, No Iterations 2
time step continuity errors : sum local = 6.1522831e-09, global = -6.5665764e-10, cumulative = 5.4082926e-05
ExecutionTime = 233.97691 s  ClockTime = 236 s

Time = 1195s

smoothSolver:  Solving for Ux, Initial residual = 2.7853611e-06, Final residual = 1.054482e-07, No Iterations 3
smoothSolver:  Solving for Uy, Initial residual = 8.2829983e-06, Final residual = 3.0752941e-07, No Iterations 3
smoothSolver:  Solving for Uz, Initial residual = 1.6882685e-06, Final residual = 6.3131111e-08, No Iterations 3
GAMG:  Solving for p, Initial residual = 1.136235e-05, Final residual = 7.2217791e-08, No Iterations 2
time step continuity errors : sum local = 6.0878799e-09, global = -6.5604753e-10, cumulative = 5.408227e-05
ExecutionTime = 234.16507 s  ClockTime = 236 s

Time = 1196s

smoothSolver:  Solving for Ux, Initial residual = 2.7564001e-06, Final residual = 1.0437216e-07, No Iterations 3
smoothSolver:  Solving for Uy, Initial residual = 8.2211498e-06, Final residual = 3.0528982e-07, No Iterations 3
smoothSolver:  Solving for Uz, Initial residual = 1.6705746e-06, Final residual = 6.248253e-08, No Iterations 3
GAMG:  Solving for p, Initial residual = 1.1246695e-05, Final residual = 7.1442551e-08, No Iterations 2
time step continuity errors : sum local = 6.0225238e-09, global = -6.5501125e-10, cumulative = 5.4081615e-05
ExecutionTime = 234.35568 s  ClockTime = 237 s

Time = 1197s

smoothSolver:  Solving for Ux, Initial residual = 2.7277222e-06, Final residual = 1.0330739e-07, No Iterations 3
smoothSolver:  Solving for Uy, Initial residual = 8.1593086e-06, Final residual = 3.0304227e-07, No Iterations 3
smoothSolver:  Solving for Uz, Initial residual = 1.6530656e-06, Final residual = 6.1840533e-08, No Iterations 3
GAMG:  Solving for p, Initial residual = 1.1132178e-05, Final residual = 7.0683027e-08, No Iterations 2
time step continuity errors : sum local = 5.9584927e-09, global = -6.5408586e-10, cumulative = 5.4080961e-05
ExecutionTime = 234.54731 s  ClockTime = 237 s

Time = 1198s

smoothSolver:  Solving for Ux, Initial residual = 2.6993343e-06, Final residual = 1.0225264e-07, No Iterations 3
smoothSolver:  Solving for Uy, Initial residual = 8.0976078e-06, Final residual = 3.0077847e-07, No Iterations 3
smoothSolver:  Solving for Uz, Initial residual = 1.6357285e-06, Final residual = 6.1205281e-08, No Iterations 3
GAMG:  Solving for p, Initial residual = 1.1018853e-05, Final residual = 6.9928413e-08, No Iterations 2
time step continuity errors : sum local = 5.8948757e-09, global = -6.5310463e-10, cumulative = 5.4080307e-05
ExecutionTime = 234.73833 s  ClockTime = 237 s

Time = 1199s

smoothSolver:  Solving for Ux, Initial residual = 2.6712331e-06, Final residual = 1.0120811e-07, No Iterations 3
smoothSolver:  Solving for Uy, Initial residual = 8.0361067e-06, Final residual = 2.9850219e-07, No Iterations 3
smoothSolver:  Solving for Uz, Initial residual = 1.6185612e-06, Final residual = 6.0576637e-08, No Iterations 3
GAMG:  Solving for p, Initial residual = 1.0906549e-05, Final residual = 6.9180069e-08, No Iterations 2
time step continuity errors : sum local = 5.8317873e-09, global = -6.5207073e-10, cumulative = 5.4079655e-05
ExecutionTime = 234.92747 s  ClockTime = 237 s

Time = 1200s

smoothSolver:  Solving for Ux, Initial residual = 2.6433964e-06, Final residual = 1.0017379e-07, No Iterations 3
smoothSolver:  Solving for Uy, Initial residual = 7.9746969e-06, Final residual = 2.9621992e-07, No Iterations 3
smoothSolver:  Solving for Uz, Initial residual = 1.6015625e-06, Final residual = 5.9954528e-08, No Iterations 3
GAMG:  Solving for p, Initial residual = 1.0795276e-05, Final residual = 6.8438544e-08, No Iterations 2
time step continuity errors : sum local = 5.7692738e-09, global = -6.5097716e-10, cumulative = 5.4079004e-05
ExecutionTime = 235.11756 s  ClockTime = 237 s

Time = 1201s

smoothSolver:  Solving for Ux, Initial residual = 2.6158208e-06, Final residual = 9.9149855e-08, No Iterations 3
smoothSolver:  Solving for Uy, Initial residual = 7.9132533e-06, Final residual = 2.9392523e-07, No Iterations 3
smoothSolver:  Solving for Uz, Initial residual = 1.5847305e-06, Final residual = 5.9338655e-08, No Iterations 3
GAMG:  Solving for p, Initial residual = 1.0685071e-05, Final residual = 6.7708539e-08, No Iterations 2
time step continuity errors : sum local = 5.7077315e-09, global = -6.4979061e-10, cumulative = 5.4078355e-05
ExecutionTime = 235.30809 s  ClockTime = 238 s

Time = 1202s

smoothSolver:  Solving for Ux, Initial residual = 2.5885084e-06, Final residual = 9.8135548e-08, No Iterations 3
smoothSolver:  Solving for Uy, Initial residual = 7.8519804e-06, Final residual = 2.9161904e-07, No Iterations 3
smoothSolver:  Solving for Uz, Initial residual = 1.5680688e-06, Final residual = 5.872885e-08, No Iterations 3
GAMG:  Solving for p, Initial residual = 1.0575955e-05, Final residual = 6.6977826e-08, No Iterations 2
time step continuity errors : sum local = 5.6461296e-09, global = -6.4858501e-10, cumulative = 5.4077706e-05
ExecutionTime = 235.49887 s  ClockTime = 238 s

Time = 1203s

smoothSolver:  Solving for Ux, Initial residual = 2.5614496e-06, Final residual = 9.7131367e-08, No Iterations 3
smoothSolver:  Solving for Uy, Initial residual = 7.7908482e-06, Final residual = 2.892957e-07, No Iterations 3
smoothSolver:  Solving for Uz, Initial residual = 1.5515678e-06, Final residual = 5.8125231e-08, No Iterations 3
GAMG:  Solving for p, Initial residual = 1.046793e-05, Final residual = 6.6253696e-08, No Iterations 2
time step continuity errors : sum local = 5.5850829e-09, global = -6.47304e-10, cumulative = 5.4077059e-05
ExecutionTime = 235.69074 s  ClockTime = 238 s

Time = 1204s

smoothSolver:  Solving for Ux, Initial residual = 2.5346568e-06, Final residual = 9.6137344e-08, No Iterations 3
smoothSolver:  Solving for Uy, Initial residual = 7.7298298e-06, Final residual = 2.8696242e-07, No Iterations 3
smoothSolver:  Solving for Uz, Initial residual = 1.5352224e-06, Final residual = 5.752776e-08, No Iterations 3
GAMG:  Solving for p, Initial residual = 1.0360993e-05, Final residual = 6.5538458e-08, No Iterations 2
time step continuity errors : sum local = 5.5247858e-09, global = -6.4593665e-10, cumulative = 5.4076413e-05
ExecutionTime = 235.88186 s  ClockTime = 238 s

Time = 1205s

smoothSolver:  Solving for Ux, Initial residual = 2.5081058e-06, Final residual = 9.5153041e-08, No Iterations 3
smoothSolver:  Solving for Uy, Initial residual = 7.6689188e-06, Final residual = 2.8462364e-07, No Iterations 3
smoothSolver:  Solving for Uz, Initial residual = 1.5190327e-06, Final residual = 5.6936369e-08, No Iterations 3
GAMG:  Solving for p, Initial residual = 1.0255096e-05, Final residual = 6.4854558e-08, No Iterations 2
time step continuity errors : sum local = 5.4671304e-09, global = -6.4461018e-10, cumulative = 5.4075768e-05
ExecutionTime = 236.07282 s  ClockTime = 238 s

Time = 1206s

smoothSolver:  Solving for Ux, Initial residual = 2.4817971e-06, Final residual = 9.4178651e-08, No Iterations 3
smoothSolver:  Solving for Uy, Initial residual = 7.6079847e-06, Final residual = 2.822769e-07, No Iterations 3
smoothSolver:  Solving for Uz, Initial residual = 1.5030012e-06, Final residual = 5.6351011e-08, No Iterations 3
GAMG:  Solving for p, Initial residual = 1.0150198e-05, Final residual = 6.417764e-08, No Iterations 2
time step continuity errors : sum local = 5.4100638e-09, global = -6.4316752e-10, cumulative = 5.4075125e-05
ExecutionTime = 236.26358 s  ClockTime = 238 s

Time = 1207s

smoothSolver:  Solving for Ux, Initial residual = 2.455755e-06, Final residual = 9.3215031e-08, No Iterations 3
smoothSolver:  Solving for Uy, Initial residual = 7.5471249e-06, Final residual = 2.7992241e-07, No Iterations 3
smoothSolver:  Solving for Uz, Initial residual = 1.4871312e-06, Final residual = 5.5771835e-08, No Iterations 3
GAMG:  Solving for p, Initial residual = 1.0046355e-05, Final residual = 6.3439596e-08, No Iterations 2
time step continuity errors : sum local = 5.3478444e-09, global = -6.4127342e-10, cumulative = 5.4074484e-05
ExecutionTime = 236.45386 s  ClockTime = 239 s

Time = 1208s

smoothSolver:  Solving for Ux, Initial residual = 2.4299399e-06, Final residual = 9.2260275e-08, No Iterations 3
smoothSolver:  Solving for Uy, Initial residual = 7.4863699e-06, Final residual = 2.7755791e-07, No Iterations 3
smoothSolver:  Solving for Uz, Initial residual = 1.4714114e-06, Final residual = 5.5198338e-08, No Iterations 3
GAMG:  Solving for p, Initial residual = 9.9434597e-06, Final residual = 6.2753887e-08, No Iterations 2
time step continuity errors : sum local = 5.2900368e-09, global = -6.3960844e-10, cumulative = 5.4073844e-05
ExecutionTime = 236.64493 s  ClockTime = 239 s


SIMPLE solution converged in 1208 iterations

End

Finalising parallel run
