/*---------------------------------------------------------------------------*\
  =========                 |
  \\      /  F ield         | OpenFOAM: The Open Source CFD Toolbox
   \\    /   O peration     | Website:  https://openfoam.org
    \\  /    A nd           | Version:  11
     \\/     M anipulation  |
\*---------------------------------------------------------------------------*/
Build  : 11-e1fc8c682ae6
Exec   : foamRun -solver incompressibleFluid -parallel
Date   : Feb 07 2026
Time   : 18:03:50
Host   : "ip-172-31-18-192"
PID    : 119821
I/O    : uncollated
Case   : /home/ubuntu/cases/bifurcation_angle30_750_ascii/Re200
nProcs : 16
Slaves : 
15
(
"ip-172-31-18-192.119822"
"ip-172-31-18-192.119823"
"ip-172-31-18-192.119824"
"ip-172-31-18-192.119825"
"ip-172-31-18-192.119826"
"ip-172-31-18-192.119827"
"ip-172-31-18-192.119828"
"ip-172-31-18-192.119829"
"ip-172-31-18-192.119830"
"ip-172-31-18-192.119831"
"ip-172-31-18-192.119832"
"ip-172-31-18-192.119833"
"ip-172-31-18-192.119834"
"ip-172-31-18-192.119835"
"ip-172-31-18-192.119836"
)

Pstream initialised with:
    floatTransfer      : false
    nProcsSimpleSum    : 0
    commsType          : nonBlocking
    polling iterations : 0
sigFpe : Enabling floating point exception trapping (FOAM_SIGFPE).
fileModificationChecking : Monitoring run-time modified files using timeStampMaster (fileModificationSkew 10)
allowSystemOperations : Allowing user-supplied system call operations

// * * * * * * * * * * * * * * * * * * * * * * * * * * * * * * * * * * * * * //
Create time

Create mesh for time = 0

Selecting solver incompressibleFluid
Selecting viscosity model Newtonian
Selecting turbulence model type laminar
Selecting laminar stress model Stokes
No MRF models present


SIMPLE: Convergence criteria found
        p: tolerance 1e-05
        U: tolerance 1e-05


SIMPLE: Operating solver in steady-state mode with 1 outer corrector
SIMPLE: Operating solver in SIMPLE mode



Starting time loop

wallShearStress wallShearStress:
    processing wall patches: 
        wall-fluid_domain

Time = 1s

smoothSolver:  Solving for Ux, Initial residual = 1, Final residual = 0.040596707, No Iterations 1
smoothSolver:  Solving for Uy, Initial residual = 1, Final residual = 0.04830912, No Iterations 1
smoothSolver:  Solving for Uz, Initial residual = 1, Final residual = 0.020481337, No Iterations 1
GAMG:  Solving for p, Initial residual = 1, Final residual = 0.00781754, No Iterations 10
time step continuity errors : sum local = 0.00012706376, global = -2.6816696e-06, cumulative = -2.6816696e-06
ExecutionTime = 0.632571 s  ClockTime = 1 s

Time = 2s

smoothSolver:  Solving for Ux, Initial residual = 0.23656115, Final residual = 0.01636186, No Iterations 2
smoothSolver:  Solving for Uy, Initial residual = 0.32458266, Final residual = 0.014755366, No Iterations 2
smoothSolver:  Solving for Uz, Initial residual = 0.24561244, Final residual = 0.019512658, No Iterations 2
GAMG:  Solving for p, Initial residual = 0.29871665, Final residual = 0.0020789271, No Iterations 6
time step continuity errors : sum local = 0.003465305, global = -0.00014595798, cumulative = -0.00014863965
ExecutionTime = 0.820563 s  ClockTime = 1 s

Time = 3s

smoothSolver:  Solving for Ux, Initial residual = 0.23617352, Final residual = 0.0075861355, No Iterations 3
smoothSolver:  Solving for Uy, Initial residual = 0.13241512, Final residual = 0.0078845768, No Iterations 2
smoothSolver:  Solving for Uz, Initial residual = 0.47458195, Final residual = 0.01679322, No Iterations 3
GAMG:  Solving for p, Initial residual = 0.14518804, Final residual = 0.00090883747, No Iterations 3
time step continuity errors : sum local = 0.0063159729, global = 0.00012102216, cumulative = -2.7617491e-05
ExecutionTime = 0.981602 s  ClockTime = 1 s

Time = 4s

smoothSolver:  Solving for Ux, Initial residual = 0.15026755, Final residual = 0.0050416737, No Iterations 3
smoothSolver:  Solving for Uy, Initial residual = 0.070449694, Final residual = 0.0042198628, No Iterations 2
smoothSolver:  Solving for Uz, Initial residual = 0.31378686, Final residual = 0.01111953, No Iterations 3
GAMG:  Solving for p, Initial residual = 0.10015543, Final residual = 0.00087666685, No Iterations 5
time step continuity errors : sum local = 0.0060476593, global = 1.1424984e-05, cumulative = -1.6192507e-05
ExecutionTime = 1.160988 s  ClockTime = 1 s

Time = 5s

smoothSolver:  Solving for Ux, Initial residual = 0.075183987, Final residual = 0.0072975178, No Iterations 2
smoothSolver:  Solving for Uy, Initial residual = 0.18644747, Final residual = 0.012562272, No Iterations 2
smoothSolver:  Solving for Uz, Initial residual = 0.11914505, Final residual = 0.0042278961, No Iterations 3
GAMG:  Solving for p, Initial residual = 0.087448777, Final residual = 0.00072919595, No Iterations 6
time step continuity errors : sum local = 0.0025203579, global = 0.00013394045, cumulative = 0.00011774794
ExecutionTime = 1.346773 s  ClockTime = 1 s

Time = 6s

smoothSolver:  Solving for Ux, Initial residual = 0.074155551, Final residual = 0.0063321238, No Iterations 2
smoothSolver:  Solving for Uy, Initial residual = 0.40174357, Final residual = 0.026362867, No Iterations 2
smoothSolver:  Solving for Uz, Initial residual = 0.058934909, Final residual = 0.0020096598, No Iterations 3
GAMG:  Solving for p, Initial residual = 0.42000208, Final residual = 0.0041099843, No Iterations 4
time step continuity errors : sum local = 0.0082560267, global = 0.00026793324, cumulative = 0.00038568118
ExecutionTime = 1.51439 s  ClockTime = 1 s

Time = 7s

smoothSolver:  Solving for Ux, Initial residual = 0.12251838, Final residual = 0.01182914, No Iterations 2
smoothSolver:  Solving for Uy, Initial residual = 0.24986424, Final residual = 0.015804837, No Iterations 2
smoothSolver:  Solving for Uz, Initial residual = 0.17677784, Final residual = 0.0062606249, No Iterations 3
GAMG:  Solving for p, Initial residual = 0.25708965, Final residual = 0.0024982936, No Iterations 3
time step continuity errors : sum local = 0.009216735, global = -0.00015854739, cumulative = 0.0002271338
ExecutionTime = 1.672516 s  ClockTime = 2 s

Time = 8s

smoothSolver:  Solving for Ux, Initial residual = 0.11024673, Final residual = 0.0035264741, No Iterations 3
smoothSolver:  Solving for Uy, Initial residual = 0.13495191, Final residual = 0.0090337313, No Iterations 2
smoothSolver:  Solving for Uz, Initial residual = 0.1909468, Final residual = 0.0067612812, No Iterations 3
GAMG:  Solving for p, Initial residual = 0.19759386, Final residual = 0.0010242234, No Iterations 5
time step continuity errors : sum local = 0.0032674773, global = -1.220693e-05, cumulative = 0.00021492687
ExecutionTime = 1.850107 s  ClockTime = 2 s

Time = 9s

smoothSolver:  Solving for Ux, Initial residual = 0.05735615, Final residual = 0.0053883079, No Iterations 2
smoothSolver:  Solving for Uy, Initial residual = 0.25338723, Final residual = 0.019723825, No Iterations 2
smoothSolver:  Solving for Uz, Initial residual = 0.068068321, Final residual = 0.002354698, No Iterations 3
GAMG:  Solving for p, Initial residual = 0.20290767, Final residual = 0.00092616014, No Iterations 6
time step continuity errors : sum local = 0.0011554777, global = -4.85905e-05, cumulative = 0.00016633637
ExecutionTime = 2.033928 s  ClockTime = 2 s

Time = 10s

smoothSolver:  Solving for Ux, Initial residual = 0.063954039, Final residual = 0.0058469407, No Iterations 2
smoothSolver:  Solving for Uy, Initial residual = 0.39610017, Final residual = 0.028393335, No Iterations 2
smoothSolver:  Solving for Uz, Initial residual = 0.061477098, Final residual = 0.0021623857, No Iterations 3
GAMG:  Solving for p, Initial residual = 0.29843767, Final residual = 0.0026511474, No Iterations 4
time step continuity errors : sum local = 0.0032960126, global = -8.4686656e-05, cumulative = 8.1649711e-05
ExecutionTime = 2.201332 s  ClockTime = 2 s

Time = 11s

smoothSolver:  Solving for Ux, Initial residual = 0.068158026, Final residual = 0.0066916944, No Iterations 2
smoothSolver:  Solving for Uy, Initial residual = 0.23023896, Final residual = 0.015270426, No Iterations 2
smoothSolver:  Solving for Uz, Initial residual = 0.095320848, Final residual = 0.0033882999, No Iterations 3
GAMG:  Solving for p, Initial residual = 0.21438387, Final residual = 0.001416684, No Iterations 4
time step continuity errors : sum local = 0.0026293484, global = -2.4111645e-06, cumulative = 7.9238546e-05
ExecutionTime = 2.3699 s  ClockTime = 2 s

Time = 12s

smoothSolver:  Solving for Ux, Initial residual = 0.043847744, Final residual = 0.0014291577, No Iterations 3
smoothSolver:  Solving for Uy, Initial residual = 0.14732987, Final residual = 0.01148428, No Iterations 2
smoothSolver:  Solving for Uz, Initial residual = 0.065159395, Final residual = 0.0023163186, No Iterations 3
GAMG:  Solving for p, Initial residual = 0.16752433, Final residual = 0.0011644826, No Iterations 5
time step continuity errors : sum local = 0.0016343008, global = 1.1540812e-06, cumulative = 8.0392627e-05
ExecutionTime = 2.549507 s  ClockTime = 2 s

Time = 13s

smoothSolver:  Solving for Ux, Initial residual = 0.021345874, Final residual = 0.0019245341, No Iterations 2
smoothSolver:  Solving for Uy, Initial residual = 0.30703436, Final residual = 0.025384165, No Iterations 2
smoothSolver:  Solving for Uz, Initial residual = 0.015258344, Final residual = 0.00048383005, No Iterations 3
GAMG:  Solving for p, Initial residual = 0.26296202, Final residual = 0.001051135, No Iterations 6
time step continuity errors : sum local = 0.00049617841, global = 2.495473e-05, cumulative = 0.00010534736
ExecutionTime = 2.736898 s  ClockTime = 3 s

Time = 14s

smoothSolver:  Solving for Ux, Initial residual = 0.029879701, Final residual = 0.0028000377, No Iterations 2
smoothSolver:  Solving for Uy, Initial residual = 0.33321399, Final residual = 0.025356054, No Iterations 2
smoothSolver:  Solving for Uz, Initial residual = 0.031500207, Final residual = 0.0011058475, No Iterations 3
GAMG:  Solving for p, Initial residual = 0.29061057, Final residual = 0.0019915394, No Iterations 4
time step continuity errors : sum local = 0.0013646804, global = 2.1379881e-05, cumulative = 0.00012672724
ExecutionTime = 2.903008 s  ClockTime = 3 s

Time = 15s

smoothSolver:  Solving for Ux, Initial residual = 0.031712904, Final residual = 0.0031254091, No Iterations 2
smoothSolver:  Solving for Uy, Initial residual = 0.18220245, Final residual = 0.012753498, No Iterations 2
smoothSolver:  Solving for Uz, Initial residual = 0.044353589, Final residual = 0.0015661304, No Iterations 3
GAMG:  Solving for p, Initial residual = 0.21799454, Final residual = 0.0017459494, No Iterations 4
time step continuity errors : sum local = 0.0014870144, global = -7.4899878e-07, cumulative = 0.00012597824
ExecutionTime = 3.069473 s  ClockTime = 3 s

Time = 16s

smoothSolver:  Solving for Ux, Initial residual = 0.021139758, Final residual = 0.00067658305, No Iterations 3
smoothSolver:  Solving for Uy, Initial residual = 0.14639859, Final residual = 0.012458642, No Iterations 2
smoothSolver:  Solving for Uz, Initial residual = 0.028422551, Final residual = 0.00099802394, No Iterations 3
GAMG:  Solving for p, Initial residual = 0.17340059, Final residual = 0.0013918162, No Iterations 5
time step continuity errors : sum local = 0.00078816786, global = 4.0535562e-07, cumulative = 0.0001263836
ExecutionTime = 3.247995 s  ClockTime = 3 s

Time = 17s

smoothSolver:  Solving for Ux, Initial residual = 0.011584429, Final residual = 0.0009944188, No Iterations 2
smoothSolver:  Solving for Uy, Initial residual = 0.27311562, Final residual = 0.023054858, No Iterations 2
smoothSolver:  Solving for Uz, Initial residual = 0.0065329304, Final residual = 0.00059047776, No Iterations 2
GAMG:  Solving for p, Initial residual = 0.43895858, Final residual = 0.0036847388, No Iterations 5
time step continuity errors : sum local = 0.00055914065, global = 6.4397401e-06, cumulative = 0.00013282334
ExecutionTime = 3.424042 s  ClockTime = 3 s

Time = 18s

smoothSolver:  Solving for Ux, Initial residual = 0.016596261, Final residual = 0.0016146952, No Iterations 2
smoothSolver:  Solving for Uy, Initial residual = 0.23917264, Final residual = 0.018660447, No Iterations 2
smoothSolver:  Solving for Uz, Initial residual = 0.018883249, Final residual = 0.00067560376, No Iterations 3
GAMG:  Solving for p, Initial residual = 0.22275941, Final residual = 0.0012570651, No Iterations 4
time step continuity errors : sum local = 0.00055097971, global = -5.2627538e-06, cumulative = 0.00012756058
ExecutionTime = 3.592596 s  ClockTime = 4 s

Time = 19s

smoothSolver:  Solving for Ux, Initial residual = 0.014738177, Final residual = 0.00047400002, No Iterations 3
smoothSolver:  Solving for Uy, Initial residual = 0.13124132, Final residual = 0.0097948216, No Iterations 2
smoothSolver:  Solving for Uz, Initial residual = 0.020297858, Final residual = 0.00072722138, No Iterations 3
GAMG:  Solving for p, Initial residual = 0.1738054, Final residual = 0.0016992417, No Iterations 4
time step continuity errors : sum local = 0.00079463448, global = 5.2590271e-06, cumulative = 0.00013281961
ExecutionTime = 3.76103 s  ClockTime = 4 s

Time = 20s

smoothSolver:  Solving for Ux, Initial residual = 0.0092548098, Final residual = 0.00030621559, No Iterations 3
smoothSolver:  Solving for Uy, Initial residual = 0.1289407, Final residual = 0.011635188, No Iterations 2
smoothSolver:  Solving for Uz, Initial residual = 0.010675847, Final residual = 0.00038127992, No Iterations 3
GAMG:  Solving for p, Initial residual = 0.12655953, Final residual = 0.0011960372, No Iterations 5
time step continuity errors : sum local = 0.00037033841, global = -2.3999328e-06, cumulative = 0.00013041968
ExecutionTime = 3.936871 s  ClockTime = 4 s

Time = 21s

smoothSolver:  Solving for Ux, Initial residual = 0.0063356247, Final residual = 0.00056700206, No Iterations 2
smoothSolver:  Solving for Uy, Initial residual = 0.18583573, Final residual = 0.016043007, No Iterations 2
smoothSolver:  Solving for Uz, Initial residual = 0.0039759251, Final residual = 0.00037808938, No Iterations 2
GAMG:  Solving for p, Initial residual = 0.33639009, Final residual = 0.002108369, No Iterations 5
time step continuity errors : sum local = 0.00022905411, global = -3.3361793e-06, cumulative = 0.0001270835
ExecutionTime = 4.112843 s  ClockTime = 4 s

Time = 22s

smoothSolver:  Solving for Ux, Initial residual = 0.0077335614, Final residual = 0.0007367767, No Iterations 2
smoothSolver:  Solving for Uy, Initial residual = 0.14609824, Final residual = 0.011749337, No Iterations 2
smoothSolver:  Solving for Uz, Initial residual = 0.0092274856, Final residual = 0.00031988131, No Iterations 3
GAMG:  Solving for p, Initial residual = 0.21672681, Final residual = 0.0011210165, No Iterations 4
time step continuity errors : sum local = 0.0002478347, global = 4.7038352e-07, cumulative = 0.00012755388
ExecutionTime = 4.279224 s  ClockTime = 4 s

Time = 23s

smoothSolver:  Solving for Ux, Initial residual = 0.0063330212, Final residual = 0.00062536111, No Iterations 2
smoothSolver:  Solving for Uy, Initial residual = 0.081848935, Final residual = 0.0065415115, No Iterations 2
smoothSolver:  Solving for Uz, Initial residual = 0.0088326245, Final residual = 0.00030646884, No Iterations 3
GAMG:  Solving for p, Initial residual = 0.16993487, Final residual = 0.00079041908, No Iterations 5
time step continuity errors : sum local = 0.00016816473, global = -1.0764457e-06, cumulative = 0.00012647744
ExecutionTime = 4.455934 s  ClockTime = 4 s

Time = 24s

smoothSolver:  Solving for Ux, Initial residual = 0.0040585903, Final residual = 0.00039298965, No Iterations 2
smoothSolver:  Solving for Uy, Initial residual = 0.090984404, Final residual = 0.0083622957, No Iterations 2
smoothSolver:  Solving for Uz, Initial residual = 0.0037873875, Final residual = 0.00012391093, No Iterations 3
GAMG:  Solving for p, Initial residual = 0.13867119, Final residual = 0.0013410543, No Iterations 5
time step continuity errors : sum local = 0.00016706007, global = 1.3960357e-06, cumulative = 0.00012787347
ExecutionTime = 4.631607 s  ClockTime = 5 s

Time = 25s

smoothSolver:  Solving for Ux, Initial residual = 0.0042378606, Final residual = 0.00041247745, No Iterations 2
smoothSolver:  Solving for Uy, Initial residual = 0.10723009, Final residual = 0.0094116072, No Iterations 2
smoothSolver:  Solving for Uz, Initial residual = 0.0037218469, Final residual = 0.00012801318, No Iterations 3
GAMG:  Solving for p, Initial residual = 0.1327127, Final residual = 0.00060427436, No Iterations 5
time step continuity errors : sum local = 8.9984101e-05, global = 9.7233026e-07, cumulative = 0.0001288458
ExecutionTime = 4.808239 s  ClockTime = 5 s

Time = 26s

smoothSolver:  Solving for Ux, Initial residual = 0.0044765362, Final residual = 0.00014388898, No Iterations 3
smoothSolver:  Solving for Uy, Initial residual = 0.078289819, Final residual = 0.0066141137, No Iterations 2
smoothSolver:  Solving for Uz, Initial residual = 0.0053893391, Final residual = 0.00019317431, No Iterations 3
GAMG:  Solving for p, Initial residual = 0.11719254, Final residual = 0.00083179144, No Iterations 4
time step continuity errors : sum local = 0.00016059714, global = 5.0818887e-07, cumulative = 0.00012935399
ExecutionTime = 4.976709 s  ClockTime = 5 s

Time = 27s

smoothSolver:  Solving for Ux, Initial residual = 0.0036439421, Final residual = 0.00012272729, No Iterations 3
smoothSolver:  Solving for Uy, Initial residual = 0.049646567, Final residual = 0.0045230555, No Iterations 2
smoothSolver:  Solving for Uz, Initial residual = 0.004595984, Final residual = 0.00016374949, No Iterations 3
GAMG:  Solving for p, Initial residual = 0.085028535, Final residual = 0.00047689711, No Iterations 5
time step continuity errors : sum local = 8.6721246e-05, global = -4.8132857e-08, cumulative = 0.00012930586
ExecutionTime = 5.155406 s  ClockTime = 5 s

Time = 28s

smoothSolver:  Solving for Ux, Initial residual = 0.0030421081, Final residual = 9.8361549e-05, No Iterations 3
smoothSolver:  Solving for Uy, Initial residual = 0.057168174, Final residual = 0.0054359627, No Iterations 2
smoothSolver:  Solving for Uz, Initial residual = 0.002856172, Final residual = 9.7169201e-05, No Iterations 3
GAMG:  Solving for p, Initial residual = 0.062358918, Final residual = 0.00054495053, No Iterations 5
time step continuity errors : sum local = 7.529813e-05, global = -1.0175438e-06, cumulative = 0.00012828831
ExecutionTime = 5.332592 s  ClockTime = 5 s

Time = 29s

smoothSolver:  Solving for Ux, Initial residual = 0.0026680694, Final residual = 0.00026072938, No Iterations 2
smoothSolver:  Solving for Uy, Initial residual = 0.059143982, Final residual = 0.0053891085, No Iterations 2
smoothSolver:  Solving for Uz, Initial residual = 0.0022432136, Final residual = 7.1741802e-05, No Iterations 3
GAMG:  Solving for p, Initial residual = 0.11446819, Final residual = 0.00094079765, No Iterations 4
time step continuity errors : sum local = 9.3164997e-05, global = 1.6139426e-06, cumulative = 0.00012990226
ExecutionTime = 5.499573 s  ClockTime = 5 s

Time = 30s

smoothSolver:  Solving for Ux, Initial residual = 0.0023270562, Final residual = 0.00022752213, No Iterations 2
smoothSolver:  Solving for Uy, Initial residual = 0.043262353, Final residual = 0.0039297233, No Iterations 2
smoothSolver:  Solving for Uz, Initial residual = 0.0024455522, Final residual = 8.0151825e-05, No Iterations 3
GAMG:  Solving for p, Initial residual = 0.11199751, Final residual = 0.00083069944, No Iterations 4
time step continuity errors : sum local = 8.4885788e-05, global = 1.0177749e-08, cumulative = 0.00012991243
ExecutionTime = 5.666475 s  ClockTime = 6 s

Time = 31s

smoothSolver:  Solving for Ux, Initial residual = 0.0020915277, Final residual = 6.5854353e-05, No Iterations 3
smoothSolver:  Solving for Uy, Initial residual = 0.033446171, Final residual = 0.0032698574, No Iterations 2
smoothSolver:  Solving for Uz, Initial residual = 0.0020855673, Final residual = 6.803505e-05, No Iterations 3
GAMG:  Solving for p, Initial residual = 0.082100453, Final residual = 0.00044013551, No Iterations 5
time step continuity errors : sum local = 4.1107285e-05, global = -1.5356374e-07, cumulative = 0.00012975887
ExecutionTime = 5.84432 s  ClockTime = 6 s

Time = 32s

smoothSolver:  Solving for Ux, Initial residual = 0.0022202065, Final residual = 7.1672028e-05, No Iterations 3
smoothSolver:  Solving for Uy, Initial residual = 0.037032687, Final residual = 0.0036292703, No Iterations 2
smoothSolver:  Solving for Uz, Initial residual = 0.0021700619, Final residual = 7.2960511e-05, No Iterations 3
GAMG:  Solving for p, Initial residual = 0.04696409, Final residual = 0.00027698175, No Iterations 5
time step continuity errors : sum local = 3.1548436e-05, global = 2.5883477e-07, cumulative = 0.0001300177
ExecutionTime = 6.023707 s  ClockTime = 6 s

Time = 33s

smoothSolver:  Solving for Ux, Initial residual = 0.0023079382, Final residual = 7.5878907e-05, No Iterations 3
smoothSolver:  Solving for Uy, Initial residual = 0.035515536, Final residual = 0.0034281903, No Iterations 2
smoothSolver:  Solving for Uz, Initial residual = 0.0024925895, Final residual = 8.5838977e-05, No Iterations 3
GAMG:  Solving for p, Initial residual = 0.048188834, Final residual = 0.00032716034, No Iterations 4
time step continuity errors : sum local = 4.2926276e-05, global = -3.2248288e-07, cumulative = 0.00012969522
ExecutionTime = 6.192093 s  ClockTime = 6 s

Time = 34s

smoothSolver:  Solving for Ux, Initial residual = 0.0021904577, Final residual = 7.3630575e-05, No Iterations 3
smoothSolver:  Solving for Uy, Initial residual = 0.028721192, Final residual = 0.0028561564, No Iterations 2
smoothSolver:  Solving for Uz, Initial residual = 0.0025357492, Final residual = 8.7792307e-05, No Iterations 3
GAMG:  Solving for p, Initial residual = 0.042841693, Final residual = 0.00035410001, No Iterations 4
time step continuity errors : sum local = 4.8114679e-05, global = 2.438969e-07, cumulative = 0.00012993912
ExecutionTime = 6.360582 s  ClockTime = 6 s

Time = 35s

smoothSolver:  Solving for Ux, Initial residual = 0.0020528061, Final residual = 6.9396254e-05, No Iterations 3
smoothSolver:  Solving for Uy, Initial residual = 0.026124507, Final residual = 0.00084459238, No Iterations 3
smoothSolver:  Solving for Uz, Initial residual = 0.0023207994, Final residual = 7.9656034e-05, No Iterations 3
GAMG:  Solving for p, Initial residual = 0.032554657, Final residual = 0.00016415793, No Iterations 5
time step continuity errors : sum local = 2.1358317e-05, global = -1.1708424e-07, cumulative = 0.00012982203
ExecutionTime = 6.539477 s  ClockTime = 7 s

Time = 36s

smoothSolver:  Solving for Ux, Initial residual = 0.0019563619, Final residual = 6.509088e-05, No Iterations 3
smoothSolver:  Solving for Uy, Initial residual = 0.026621779, Final residual = 0.00084880086, No Iterations 3
smoothSolver:  Solving for Uz, Initial residual = 0.0020607027, Final residual = 6.9765532e-05, No Iterations 3
GAMG:  Solving for p, Initial residual = 0.033069313, Final residual = 0.00030869454, No Iterations 4
time step continuity errors : sum local = 3.7140485e-05, global = 7.7311769e-07, cumulative = 0.00013059515
ExecutionTime = 6.713969 s  ClockTime = 7 s

Time = 37s

smoothSolver:  Solving for Ux, Initial residual = 0.0018584169, Final residual = 6.1375673e-05, No Iterations 3
smoothSolver:  Solving for Uy, Initial residual = 0.024759483, Final residual = 0.00078789451, No Iterations 3
smoothSolver:  Solving for Uz, Initial residual = 0.0019203535, Final residual = 6.4518338e-05, No Iterations 3
GAMG:  Solving for p, Initial residual = 0.03855447, Final residual = 0.00024415322, No Iterations 4
time step continuity errors : sum local = 2.7815116e-05, global = 4.2270084e-07, cumulative = 0.00013101785
ExecutionTime = 6.884157 s  ClockTime = 7 s

Time = 38s

smoothSolver:  Solving for Ux, Initial residual = 0.0017850013, Final residual = 5.9388683e-05, No Iterations 3
smoothSolver:  Solving for Uy, Initial residual = 0.022053144, Final residual = 0.00072034821, No Iterations 3
smoothSolver:  Solving for Uz, Initial residual = 0.0018823931, Final residual = 6.3322658e-05, No Iterations 3
GAMG:  Solving for p, Initial residual = 0.03532087, Final residual = 0.00025535232, No Iterations 4
time step continuity errors : sum local = 2.8970859e-05, global = -3.9832714e-08, cumulative = 0.00013097802
ExecutionTime = 7.055602 s  ClockTime = 7 s

Time = 39s

smoothSolver:  Solving for Ux, Initial residual = 0.0017706414, Final residual = 5.9377946e-05, No Iterations 3
smoothSolver:  Solving for Uy, Initial residual = 0.02129292, Final residual = 0.00070481301, No Iterations 3
smoothSolver:  Solving for Uz, Initial residual = 0.0019013278, Final residual = 6.4384812e-05, No Iterations 3
GAMG:  Solving for p, Initial residual = 0.028685359, Final residual = 0.00024451665, No Iterations 4
time step continuity errors : sum local = 2.8644514e-05, global = -1.1801858e-07, cumulative = 0.00013086
ExecutionTime = 7.224891 s  ClockTime = 7 s

Time = 40s

smoothSolver:  Solving for Ux, Initial residual = 0.0017768121, Final residual = 5.9881229e-05, No Iterations 3
smoothSolver:  Solving for Uy, Initial residual = 0.021160608, Final residual = 0.00069796468, No Iterations 3
smoothSolver:  Solving for Uz, Initial residual = 0.0019457858, Final residual = 6.6405645e-05, No Iterations 3
GAMG:  Solving for p, Initial residual = 0.026165518, Final residual = 0.00020068732, No Iterations 4
time step continuity errors : sum local = 2.4494885e-05, global = -1.1852057e-07, cumulative = 0.00013074148
ExecutionTime = 7.394864 s  ClockTime = 7 s

Time = 41s

smoothSolver:  Solving for Ux, Initial residual = 0.0017602564, Final residual = 5.9607252e-05, No Iterations 3
smoothSolver:  Solving for Uy, Initial residual = 0.020311591, Final residual = 0.0006731457, No Iterations 3
smoothSolver:  Solving for Uz, Initial residual = 0.0019627606, Final residual = 6.7286688e-05, No Iterations 3
GAMG:  Solving for p, Initial residual = 0.025515457, Final residual = 0.00014636893, No Iterations 4
time step continuity errors : sum local = 1.8323785e-05, global = 1.4755466e-07, cumulative = 0.00013088904
ExecutionTime = 7.563923 s  ClockTime = 8 s

Time = 42s

smoothSolver:  Solving for Ux, Initial residual = 0.0017271265, Final residual = 5.8645757e-05, No Iterations 3
smoothSolver:  Solving for Uy, Initial residual = 0.019385866, Final residual = 0.00064916597, No Iterations 3
smoothSolver:  Solving for Uz, Initial residual = 0.0019303698, Final residual = 6.6213466e-05, No Iterations 3
GAMG:  Solving for p, Initial residual = 0.024012466, Final residual = 0.0001989719, No Iterations 4
time step continuity errors : sum local = 2.5017467e-05, global = 1.8909448e-07, cumulative = 0.00013107813
ExecutionTime = 7.732706 s  ClockTime = 8 s

Time = 43s

smoothSolver:  Solving for Ux, Initial residual = 0.0016935102, Final residual = 5.7405497e-05, No Iterations 3
smoothSolver:  Solving for Uy, Initial residual = 0.018886559, Final residual = 0.00063451604, No Iterations 3
smoothSolver:  Solving for Uz, Initial residual = 0.0018633455, Final residual = 6.3767838e-05, No Iterations 3
GAMG:  Solving for p, Initial residual = 0.023053083, Final residual = 0.00019413423, No Iterations 4
time step continuity errors : sum local = 2.4137526e-05, global = 1.7885746e-07, cumulative = 0.00013125699
ExecutionTime = 7.902834 s  ClockTime = 8 s

Time = 44s

smoothSolver:  Solving for Ux, Initial residual = 0.0016624309, Final residual = 5.6173085e-05, No Iterations 3
smoothSolver:  Solving for Uy, Initial residual = 0.018415794, Final residual = 0.00061798983, No Iterations 3
smoothSolver:  Solving for Uz, Initial residual = 0.0017974176, Final residual = 6.1351979e-05, No Iterations 3
GAMG:  Solving for p, Initial residual = 0.023517062, Final residual = 0.00018179795, No Iterations 4
time step continuity errors : sum local = 2.2285957e-05, global = 2.1388868e-07, cumulative = 0.00013147088
ExecutionTime = 8.073325 s  ClockTime = 8 s

Time = 45s

smoothSolver:  Solving for Ux, Initial residual = 0.0016349877, Final residual = 5.518932e-05, No Iterations 3
smoothSolver:  Solving for Uy, Initial residual = 0.017768715, Final residual = 0.00059767581, No Iterations 3
smoothSolver:  Solving for Uz, Initial residual = 0.0017534997, Final residual = 5.9801595e-05, No Iterations 3
GAMG:  Solving for p, Initial residual = 0.023586167, Final residual = 0.00020504067, No Iterations 3
time step continuity errors : sum local = 2.4977483e-05, global = 5.0446544e-07, cumulative = 0.00013197534
ExecutionTime = 8.234935 s  ClockTime = 8 s

Time = 46s

smoothSolver:  Solving for Ux, Initial residual = 0.0016143348, Final residual = 5.4547792e-05, No Iterations 3
smoothSolver:  Solving for Uy, Initial residual = 0.017176163, Final residual = 0.00058002765, No Iterations 3
smoothSolver:  Solving for Uz, Initial residual = 0.0017294303, Final residual = 5.9050621e-05, No Iterations 3
GAMG:  Solving for p, Initial residual = 0.02262004, Final residual = 0.0001470769, No Iterations 4
time step continuity errors : sum local = 1.7992342e-05, global = -5.2034066e-08, cumulative = 0.00013192331
ExecutionTime = 8.407832 s  ClockTime = 8 s

Time = 47s

smoothSolver:  Solving for Ux, Initial residual = 0.0016023676, Final residual = 5.4207284e-05, No Iterations 3
smoothSolver:  Solving for Uy, Initial residual = 0.0167678, Final residual = 0.0005670191, No Iterations 3
smoothSolver:  Solving for Uz, Initial residual = 0.0017153688, Final residual = 5.8689256e-05, No Iterations 3
GAMG:  Solving for p, Initial residual = 0.021670767, Final residual = 0.00015183887, No Iterations 4
time step continuity errors : sum local = 1.8745777e-05, global = -9.3599694e-08, cumulative = 0.00013182971
ExecutionTime = 8.578551 s  ClockTime = 9 s

Time = 48s

smoothSolver:  Solving for Ux, Initial residual = 0.0015917023, Final residual = 5.3924551e-05, No Iterations 3
smoothSolver:  Solving for Uy, Initial residual = 0.016390758, Final residual = 0.00055470247, No Iterations 3
smoothSolver:  Solving for Uz, Initial residual = 0.0017035943, Final residual = 5.8415072e-05, No Iterations 3
GAMG:  Solving for p, Initial residual = 0.021057172, Final residual = 0.00020903797, No Iterations 3
time step continuity errors : sum local = 2.6074504e-05, global = -1.355706e-07, cumulative = 0.00013169414
ExecutionTime = 8.738335 s  ClockTime = 9 s

Time = 49s

smoothSolver:  Solving for Ux, Initial residual = 0.0015767303, Final residual = 5.3472471e-05, No Iterations 3
smoothSolver:  Solving for Uy, Initial residual = 0.015973035, Final residual = 0.00054148098, No Iterations 3
smoothSolver:  Solving for Uz, Initial residual = 0.0016837041, Final residual = 5.7806959e-05, No Iterations 3
GAMG:  Solving for p, Initial residual = 0.020623239, Final residual = 0.0001815855, No Iterations 3
time step continuity errors : sum local = 2.2788209e-05, global = 3.0257155e-07, cumulative = 0.00013199671
ExecutionTime = 8.897225 s  ClockTime = 9 s

Time = 50s

smoothSolver:  Solving for Ux, Initial residual = 0.0015623326, Final residual = 5.3017096e-05, No Iterations 3
smoothSolver:  Solving for Uy, Initial residual = 0.015577448, Final residual = 0.00052874247, No Iterations 3
smoothSolver:  Solving for Uz, Initial residual = 0.0016608115, Final residual = 5.707118e-05, No Iterations 3
GAMG:  Solving for p, Initial residual = 0.020236201, Final residual = 0.00016287066, No Iterations 4
time step continuity errors : sum local = 2.0528405e-05, global = 2.4955984e-07, cumulative = 0.00013224627
ExecutionTime = 9.066086 s  ClockTime = 9 s

Time = 51s

smoothSolver:  Solving for Ux, Initial residual = 0.0015505637, Final residual = 5.2599232e-05, No Iterations 3
smoothSolver:  Solving for Uy, Initial residual = 0.015237009, Final residual = 0.00051760178, No Iterations 3
smoothSolver:  Solving for Uz, Initial residual = 0.0016329126, Final residual = 5.6106827e-05, No Iterations 3
GAMG:  Solving for p, Initial residual = 0.020012587, Final residual = 0.00016885476, No Iterations 4
time step continuity errors : sum local = 2.1305624e-05, global = 2.4706619e-07, cumulative = 0.00013249333
ExecutionTime = 9.237491 s  ClockTime = 9 s

Time = 52s

smoothSolver:  Solving for Ux, Initial residual = 0.0015379406, Final residual = 5.2129748e-05, No Iterations 3
smoothSolver:  Solving for Uy, Initial residual = 0.014901105, Final residual = 0.00050644743, No Iterations 3
smoothSolver:  Solving for Uz, Initial residual = 0.0016036851, Final residual = 5.5087539e-05, No Iterations 3
GAMG:  Solving for p, Initial residual = 0.019927582, Final residual = 0.0001572963, No Iterations 4
time step continuity errors : sum local = 1.9836352e-05, global = 2.1752157e-07, cumulative = 0.00013271086
ExecutionTime = 9.406656 s  ClockTime = 9 s

Time = 53s

smoothSolver:  Solving for Ux, Initial residual = 0.0015249873, Final residual = 5.1650012e-05, No Iterations 3
smoothSolver:  Solving for Uy, Initial residual = 0.014558387, Final residual = 0.00049511005, No Iterations 3
smoothSolver:  Solving for Uz, Initial residual = 0.0015772706, Final residual = 5.4185518e-05, No Iterations 3
GAMG:  Solving for p, Initial residual = 0.019769037, Final residual = 0.00018760951, No Iterations 3
time step continuity errors : sum local = 2.3663269e-05, global = 4.788786e-07, cumulative = 0.00013318974
ExecutionTime = 9.573679 s  ClockTime = 10 s

Time = 54s

smoothSolver:  Solving for Ux, Initial residual = 0.0015114408, Final residual = 5.1178262e-05, No Iterations 3
smoothSolver:  Solving for Uy, Initial residual = 0.014210308, Final residual = 0.00048372747, No Iterations 3
smoothSolver:  Solving for Uz, Initial residual = 0.0015561854, Final residual = 5.3506031e-05, No Iterations 3
GAMG:  Solving for p, Initial residual = 0.019381637, Final residual = 0.00017518549, No Iterations 3
time step continuity errors : sum local = 2.2162641e-05, global = 4.1929543e-07, cumulative = 0.00013360903
ExecutionTime = 9.743293 s  ClockTime = 10 s

Time = 55s

smoothSolver:  Solving for Ux, Initial residual = 0.0014997236, Final residual = 5.0775721e-05, No Iterations 3
smoothSolver:  Solving for Uy, Initial residual = 0.013886222, Final residual = 0.00047298775, No Iterations 3
smoothSolver:  Solving for Uz, Initial residual = 0.0015363066, Final residual = 5.2867649e-05, No Iterations 3
GAMG:  Solving for p, Initial residual = 0.019035135, Final residual = 0.00018487263, No Iterations 3
time step continuity errors : sum local = 2.3470431e-05, global = 3.9418919e-07, cumulative = 0.00013400322
ExecutionTime = 9.907511 s  ClockTime = 10 s

Time = 56s

smoothSolver:  Solving for Ux, Initial residual = 0.0014901052, Final residual = 5.0452201e-05, No Iterations 3
smoothSolver:  Solving for Uy, Initial residual = 0.013583116, Final residual = 0.00046294086, No Iterations 3
smoothSolver:  Solving for Uz, Initial residual = 0.0015167316, Final residual = 5.2238141e-05, No Iterations 3
GAMG:  Solving for p, Initial residual = 0.018711019, Final residual = 0.00011824628, No Iterations 4
time step continuity errors : sum local = 1.5066295e-05, global = 2.2056434e-07, cumulative = 0.00013422378
ExecutionTime = 10.077653 s  ClockTime = 10 s

Time = 57s

smoothSolver:  Solving for Ux, Initial residual = 0.0014837775, Final residual = 5.0252748e-05, No Iterations 3
smoothSolver:  Solving for Uy, Initial residual = 0.013307057, Final residual = 0.00045377494, No Iterations 3
smoothSolver:  Solving for Uz, Initial residual = 0.0014970733, Final residual = 5.1594341e-05, No Iterations 3
GAMG:  Solving for p, Initial residual = 0.018458755, Final residual = 0.00017830522, No Iterations 3
time step continuity errors : sum local = 2.2790582e-05, global = 4.7694267e-07, cumulative = 0.00013470073
ExecutionTime = 10.238724 s  ClockTime = 10 s

Time = 58s

smoothSolver:  Solving for Ux, Initial residual = 0.0014746673, Final residual = 4.9968723e-05, No Iterations 3
smoothSolver:  Solving for Uy, Initial residual = 0.013023112, Final residual = 0.00044439221, No Iterations 3
smoothSolver:  Solving for Uz, Initial residual = 0.0014782235, Final residual = 5.098531e-05, No Iterations 3
GAMG:  Solving for p, Initial residual = 0.018126348, Final residual = 0.00012540465, No Iterations 4
time step continuity errors : sum local = 1.6083293e-05, global = 2.4570064e-07, cumulative = 0.00013494643
ExecutionTime = 10.410508 s  ClockTime = 10 s

Time = 59s

smoothSolver:  Solving for Ux, Initial residual = 0.0014668992, Final residual = 4.9722521e-05, No Iterations 3
smoothSolver:  Solving for Uy, Initial residual = 0.012751262, Final residual = 0.00043531862, No Iterations 3
smoothSolver:  Solving for Uz, Initial residual = 0.0014587512, Final residual = 5.0334696e-05, No Iterations 3
GAMG:  Solving for p, Initial residual = 0.017886681, Final residual = 0.00012375109, No Iterations 4
time step continuity errors : sum local = 1.5910323e-05, global = 2.1653774e-07, cumulative = 0.00013516297
ExecutionTime = 10.582654 s  ClockTime = 11 s

Time = 60s

smoothSolver:  Solving for Ux, Initial residual = 0.0014576377, Final residual = 4.9420284e-05, No Iterations 3
smoothSolver:  Solving for Uy, Initial residual = 0.012476105, Final residual = 0.00042619112, No Iterations 3
smoothSolver:  Solving for Uz, Initial residual = 0.0014394126, Final residual = 4.9689784e-05, No Iterations 3
GAMG:  Solving for p, Initial residual = 0.017669888, Final residual = 0.00016484092, No Iterations 3
time step continuity errors : sum local = 2.1240395e-05, global = 4.4956828e-07, cumulative = 0.00013561253
ExecutionTime = 10.746401 s  ClockTime = 11 s

Time = 61s

smoothSolver:  Solving for Ux, Initial residual = 0.0014466213, Final residual = 4.9069826e-05, No Iterations 3
smoothSolver:  Solving for Uy, Initial residual = 0.012198108, Final residual = 0.00041709803, No Iterations 3
smoothSolver:  Solving for Uz, Initial residual = 0.0014215367, Final residual = 4.9108647e-05, No Iterations 3
GAMG:  Solving for p, Initial residual = 0.01739605, Final residual = 0.00012373286, No Iterations 4
time step continuity errors : sum local = 1.5990013e-05, global = 1.8475028e-07, cumulative = 0.00013579728
ExecutionTime = 10.916227 s  ClockTime = 11 s

Time = 62s

smoothSolver:  Solving for Ux, Initial residual = 0.001438099, Final residual = 4.8799017e-05, No Iterations 3
smoothSolver:  Solving for Uy, Initial residual = 0.011944619, Final residual = 0.0004087599, No Iterations 3
smoothSolver:  Solving for Uz, Initial residual = 0.0014027104, Final residual = 4.8478702e-05, No Iterations 3
GAMG:  Solving for p, Initial residual = 0.017231315, Final residual = 0.00016793821, No Iterations 3
time step continuity errors : sum local = 2.1745021e-05, global = 3.9649764e-07, cumulative = 0.00013619378
ExecutionTime = 11.077988 s  ClockTime = 11 s

Time = 63s

smoothSolver:  Solving for Ux, Initial residual = 0.0014289029, Final residual = 4.8522865e-05, No Iterations 3
smoothSolver:  Solving for Uy, Initial residual = 0.011700028, Final residual = 0.00040074219, No Iterations 3
smoothSolver:  Solving for Uz, Initial residual = 0.001385669, Final residual = 4.7925624e-05, No Iterations 3
GAMG:  Solving for p, Initial residual = 0.016988309, Final residual = 0.00011819929, No Iterations 4
time step continuity errors : sum local = 1.5346751e-05, global = 1.7497362e-07, cumulative = 0.00013636875
ExecutionTime = 11.250446 s  ClockTime = 11 s

Time = 64s

smoothSolver:  Solving for Ux, Initial residual = 0.0014227221, Final residual = 4.8341055e-05, No Iterations 3
smoothSolver:  Solving for Uy, Initial residual = 0.011471656, Final residual = 0.00039333656, No Iterations 3
smoothSolver:  Solving for Uz, Initial residual = 0.00136787, Final residual = 4.733108e-05, No Iterations 3
GAMG:  Solving for p, Initial residual = 0.016850133, Final residual = 0.00010909819, No Iterations 4
time step continuity errors : sum local = 1.4192871e-05, global = 1.7197685e-07, cumulative = 0.00013654073
ExecutionTime = 11.421158 s  ClockTime = 11 s

Time = 65s

smoothSolver:  Solving for Ux, Initial residual = 0.0014161872, Final residual = 4.8155827e-05, No Iterations 3
smoothSolver:  Solving for Uy, Initial residual = 0.011242846, Final residual = 0.00038592357, No Iterations 3
smoothSolver:  Solving for Uz, Initial residual = 0.0013506681, Final residual = 4.6766728e-05, No Iterations 3
GAMG:  Solving for p, Initial residual = 0.016700336, Final residual = 0.00015616243, No Iterations 3
time step continuity errors : sum local = 2.0360622e-05, global = 3.5833457e-07, cumulative = 0.00013689907
ExecutionTime = 11.581639 s  ClockTime = 12 s

Time = 66s

smoothSolver:  Solving for Ux, Initial residual = 0.0014074006, Final residual = 4.789894e-05, No Iterations 3
smoothSolver:  Solving for Uy, Initial residual = 0.011008284, Final residual = 0.00037834463, No Iterations 3
smoothSolver:  Solving for Uz, Initial residual = 0.0013347685, Final residual = 4.6261481e-05, No Iterations 3
GAMG:  Solving for p, Initial residual = 0.016509015, Final residual = 0.00016433499, No Iterations 3
time step continuity errors : sum local = 2.1487237e-05, global = 3.8793085e-07, cumulative = 0.000137287
ExecutionTime = 11.741279 s  ClockTime = 12 s

Time = 67s

smoothSolver:  Solving for Ux, Initial residual = 0.0013993863, Final residual = 4.7667966e-05, No Iterations 3
smoothSolver:  Solving for Uy, Initial residual = 0.010784091, Final residual = 0.00037108189, No Iterations 3
smoothSolver:  Solving for Uz, Initial residual = 0.0013191527, Final residual = 4.5757372e-05, No Iterations 3
GAMG:  Solving for p, Initial residual = 0.016334171, Final residual = 0.00011417799, No Iterations 4
time step continuity errors : sum local = 1.496967e-05, global = 1.9633461e-07, cumulative = 0.00013748333
ExecutionTime = 11.910864 s  ClockTime = 12 s

Time = 68s

smoothSolver:  Solving for Ux, Initial residual = 0.0013935252, Final residual = 4.7508839e-05, No Iterations 3
smoothSolver:  Solving for Uy, Initial residual = 0.010576094, Final residual = 0.00036430934, No Iterations 3
smoothSolver:  Solving for Uz, Initial residual = 0.0013031566, Final residual = 4.5225262e-05, No Iterations 3
GAMG:  Solving for p, Initial residual = 0.01620071, Final residual = 0.0001075134, No Iterations 4
time step continuity errors : sum local = 1.4124203e-05, global = 1.923326e-07, cumulative = 0.00013767566
ExecutionTime = 12.082014 s  ClockTime = 12 s

Time = 69s

smoothSolver:  Solving for Ux, Initial residual = 0.0013870472, Final residual = 4.7332545e-05, No Iterations 3
smoothSolver:  Solving for Uy, Initial residual = 0.010378874, Final residual = 0.00035787352, No Iterations 3
smoothSolver:  Solving for Uz, Initial residual = 0.0012877918, Final residual = 4.4716194e-05, No Iterations 3
GAMG:  Solving for p, Initial residual = 0.016061224, Final residual = 0.00014967378, No Iterations 3
time step continuity errors : sum local = 1.9703434e-05, global = 3.8472407e-07, cumulative = 0.00013806039
ExecutionTime = 12.243629 s  ClockTime = 12 s

Time = 70s

smoothSolver:  Solving for Ux, Initial residual = 0.0013786117, Final residual = 4.7090929e-05, No Iterations 3
smoothSolver:  Solving for Uy, Initial residual = 0.010184482, Final residual = 0.00035156482, No Iterations 3
smoothSolver:  Solving for Uz, Initial residual = 0.0012735137, Final residual = 4.4254787e-05, No Iterations 3
GAMG:  Solving for p, Initial residual = 0.015857456, Final residual = 0.00015763731, No Iterations 3
time step continuity errors : sum local = 2.080688e-05, global = 3.9057907e-07, cumulative = 0.00013845097
ExecutionTime = 12.404915 s  ClockTime = 12 s

Time = 71s

smoothSolver:  Solving for Ux, Initial residual = 0.001371047, Final residual = 4.6878266e-05, No Iterations 3
smoothSolver:  Solving for Uy, Initial residual = 0.0099983113, Final residual = 0.00034558039, No Iterations 3
smoothSolver:  Solving for Uz, Initial residual = 0.0012591826, Final residual = 4.3786841e-05, No Iterations 3
GAMG:  Solving for p, Initial residual = 0.015687884, Final residual = 0.00010932954, No Iterations 4
time step continuity errors : sum local = 1.4467158e-05, global = 1.8404143e-07, cumulative = 0.00013863501
ExecutionTime = 12.574121 s  ClockTime = 13 s

Time = 72s

smoothSolver:  Solving for Ux, Initial residual = 0.001365716, Final residual = 4.6741573e-05, No Iterations 3
smoothSolver:  Solving for Uy, Initial residual = 0.0098223155, Final residual = 0.00033987548, No Iterations 3
smoothSolver:  Solving for Uz, Initial residual = 0.0012441194, Final residual = 4.3278857e-05, No Iterations 3
GAMG:  Solving for p, Initial residual = 0.015579849, Final residual = 0.00010083063, No Iterations 4
time step continuity errors : sum local = 1.3366322e-05, global = 1.7227636e-07, cumulative = 0.00013880729
ExecutionTime = 12.744412 s  ClockTime = 13 s

Time = 73s

smoothSolver:  Solving for Ux, Initial residual = 0.0013597851, Final residual = 4.6592469e-05, No Iterations 3
smoothSolver:  Solving for Uy, Initial residual = 0.0096462235, Final residual = 0.00033411912, No Iterations 3
smoothSolver:  Solving for Uz, Initial residual = 0.0012294869, Final residual = 4.2788039e-05, No Iterations 3
GAMG:  Solving for p, Initial residual = 0.01547304, Final residual = 0.00014268375, No Iterations 3
time step continuity errors : sum local = 1.8951645e-05, global = 3.1251351e-07, cumulative = 0.0001391198
ExecutionTime = 12.905354 s  ClockTime = 13 s

Time = 74s

smoothSolver:  Solving for Ux, Initial residual = 0.001351803, Final residual = 4.6375794e-05, No Iterations 3
smoothSolver:  Solving for Uy, Initial residual = 0.0094653914, Final residual = 0.00032811387, No Iterations 3
smoothSolver:  Solving for Uz, Initial residual = 0.001215949, Final residual = 4.234685e-05, No Iterations 3
GAMG:  Solving for p, Initial residual = 0.015315394, Final residual = 0.00014915744, No Iterations 3
time step continuity errors : sum local = 1.9862784e-05, global = 3.1671525e-07, cumulative = 0.00013943651
ExecutionTime = 13.067045 s  ClockTime = 13 s

Time = 75s

smoothSolver:  Solving for Ux, Initial residual = 0.0013445943, Final residual = 4.6186875e-05, No Iterations 3
smoothSolver:  Solving for Uy, Initial residual = 0.0092897909, Final residual = 0.00032220702, No Iterations 3
smoothSolver:  Solving for Uz, Initial residual = 0.0012025244, Final residual = 4.1901408e-05, No Iterations 3
GAMG:  Solving for p, Initial residual = 0.015174904, Final residual = 9.9119994e-05, No Iterations 4
time step continuity errors : sum local = 1.3232883e-05, global = 1.5903467e-07, cumulative = 0.00013959555
ExecutionTime = 13.236553 s  ClockTime = 13 s

Time = 76s

smoothSolver:  Solving for Ux, Initial residual = 0.001339305, Final residual = 4.606211e-05, No Iterations 3
smoothSolver:  Solving for Uy, Initial residual = 0.0091239896, Final residual = 0.00031656113, No Iterations 3
smoothSolver:  Solving for Uz, Initial residual = 0.001188664, Final residual = 4.142918e-05, No Iterations 3
GAMG:  Solving for p, Initial residual = 0.015078545, Final residual = 9.3228244e-05, No Iterations 4
time step continuity errors : sum local = 1.2470373e-05, global = 1.625573e-07, cumulative = 0.00013975811
ExecutionTime = 13.407851 s  ClockTime = 13 s

Time = 77s

smoothSolver:  Solving for Ux, Initial residual = 0.001333558, Final residual = 4.5916241e-05, No Iterations 3
smoothSolver:  Solving for Uy, Initial residual = 0.0089683911, Final residual = 0.00031120133, No Iterations 3
smoothSolver:  Solving for Uz, Initial residual = 0.0011753494, Final residual = 4.098072e-05, No Iterations 3
GAMG:  Solving for p, Initial residual = 0.014965606, Final residual = 0.00013982158, No Iterations 3
time step continuity errors : sum local = 1.8741314e-05, global = 2.9775402e-07, cumulative = 0.00014005586
ExecutionTime = 13.569406 s  ClockTime = 14 s

Time = 78s

smoothSolver:  Solving for Ux, Initial residual = 0.0013260032, Final residual = 4.5703056e-05, No Iterations 3
smoothSolver:  Solving for Uy, Initial residual = 0.0088171311, Final residual = 0.00030598559, No Iterations 3
smoothSolver:  Solving for Uz, Initial residual = 0.0011629999, Final residual = 4.0575616e-05, No Iterations 3
GAMG:  Solving for p, Initial residual = 0.014793818, Final residual = 0.00014733286, No Iterations 3
time step continuity errors : sum local = 1.9798556e-05, global = 3.1612626e-07, cumulative = 0.00014037199
ExecutionTime = 13.729529 s  ClockTime = 14 s

Time = 79s

smoothSolver:  Solving for Ux, Initial residual = 0.0013191702, Final residual = 4.5512948e-05, No Iterations 3
smoothSolver:  Solving for Uy, Initial residual = 0.0086707131, Final residual = 0.00030095084, No Iterations 3
smoothSolver:  Solving for Uz, Initial residual = 0.0011506628, Final residual = 4.0168944e-05, No Iterations 3
GAMG:  Solving for p, Initial residual = 0.014631261, Final residual = 9.6711714e-05, No Iterations 4
time step continuity errors : sum local = 1.3028246e-05, global = 1.6884526e-07, cumulative = 0.00014054083
ExecutionTime = 13.901003 s  ClockTime = 14 s

Time = 80s

smoothSolver:  Solving for Ux, Initial residual = 0.0013142071, Final residual = 4.5389261e-05, No Iterations 3
smoothSolver:  Solving for Uy, Initial residual = 0.008528638, Final residual = 0.00029595268, No Iterations 3
smoothSolver:  Solving for Uz, Initial residual = 0.0011377787, Final residual = 3.9731876e-05, No Iterations 3
GAMG:  Solving for p, Initial residual = 0.014542892, Final residual = 9.0641799e-05, No Iterations 4
time step continuity errors : sum local = 1.2233793e-05, global = 1.644308e-07, cumulative = 0.00014070526
ExecutionTime = 14.070821 s  ClockTime = 14 s

Time = 81s

smoothSolver:  Solving for Ux, Initial residual = 0.0013085752, Final residual = 4.5246663e-05, No Iterations 3
smoothSolver:  Solving for Uy, Initial residual = 0.0083850369, Final residual = 0.00029083048, No Iterations 3
smoothSolver:  Solving for Uz, Initial residual = 0.0011251979, Final residual = 3.931078e-05, No Iterations 3
GAMG:  Solving for p, Initial residual = 0.014428533, Final residual = 0.00013501105, No Iterations 3
time step continuity errors : sum local = 1.8258318e-05, global = 2.9068029e-07, cumulative = 0.00014099594
ExecutionTime = 14.232964 s  ClockTime = 14 s

Time = 82s

smoothSolver:  Solving for Ux, Initial residual = 0.0013010598, Final residual = 4.504317e-05, No Iterations 3
smoothSolver:  Solving for Uy, Initial residual = 0.0082408286, Final residual = 0.00028566817, No Iterations 3
smoothSolver:  Solving for Uz, Initial residual = 0.0011134227, Final residual = 3.8930442e-05, No Iterations 3
GAMG:  Solving for p, Initial residual = 0.014279626, Final residual = 0.00014011284, No Iterations 3
time step continuity errors : sum local = 1.899422e-05, global = 2.9558696e-07, cumulative = 0.00014129153
ExecutionTime = 14.393583 s  ClockTime = 14 s

Time = 83s

smoothSolver:  Solving for Ux, Initial residual = 0.0012941368, Final residual = 4.4854338e-05, No Iterations 3
smoothSolver:  Solving for Uy, Initial residual = 0.0081013597, Final residual = 0.00028068021, No Iterations 3
smoothSolver:  Solving for Uz, Initial residual = 0.0011016831, Final residual = 3.8545745e-05, No Iterations 3
GAMG:  Solving for p, Initial residual = 0.014152754, Final residual = 8.9378116e-05, No Iterations 4
time step continuity errors : sum local = 1.2144612e-05, global = 1.5024728e-07, cumulative = 0.00014144178
ExecutionTime = 14.564292 s  ClockTime = 15 s

Time = 84s

smoothSolver:  Solving for Ux, Initial residual = 0.001288959, Final residual = 4.4722106e-05, No Iterations 3
smoothSolver:  Solving for Uy, Initial residual = 0.0079684981, Final residual = 0.00027591599, No Iterations 3
smoothSolver:  Solving for Uz, Initial residual = 0.0010895736, Final residual = 3.8135555e-05, No Iterations 3
GAMG:  Solving for p, Initial residual = 0.014070294, Final residual = 0.00014046409, No Iterations 3
time step continuity errors : sum local = 1.9120447e-05, global = 2.845738e-07, cumulative = 0.00014172635
ExecutionTime = 14.729738 s  ClockTime = 15 s

Time = 85s

smoothSolver:  Solving for Ux, Initial residual = 0.0012822945, Final residual = 4.4539787e-05, No Iterations 3
smoothSolver:  Solving for Uy, Initial residual = 0.007839112, Final residual = 0.00027136804, No Iterations 3
smoothSolver:  Solving for Uz, Initial residual = 0.0010782065, Final residual = 3.7762336e-05, No Iterations 3
GAMG:  Solving for p, Initial residual = 0.013948001, Final residual = 8.5569957e-05, No Iterations 4
time step continuity errors : sum local = 1.1673958e-05, global = 1.4208758e-07, cumulative = 0.00014186844
ExecutionTime = 14.89965 s  ClockTime = 15 s

Time = 86s

smoothSolver:  Solving for Ux, Initial residual = 0.0012768334, Final residual = 4.4389376e-05, No Iterations 3
smoothSolver:  Solving for Uy, Initial residual = 0.0077137156, Final residual = 0.00026698031, No Iterations 3
smoothSolver:  Solving for Uz, Initial residual = 0.0010666404, Final residual = 3.7374718e-05, No Iterations 3
GAMG:  Solving for p, Initial residual = 0.013874746, Final residual = 0.00013138122, No Iterations 3
time step continuity errors : sum local = 1.7955874e-05, global = 2.5880232e-07, cumulative = 0.00014212724
ExecutionTime = 15.059901 s  ClockTime = 15 s

Time = 87s

smoothSolver:  Solving for Ux, Initial residual = 0.0012699176, Final residual = 4.4182399e-05, No Iterations 3
smoothSolver:  Solving for Uy, Initial residual = 0.007591675, Final residual = 0.00026273677, No Iterations 3
smoothSolver:  Solving for Uz, Initial residual = 0.0010558465, Final residual = 3.7022494e-05, No Iterations 3
GAMG:  Solving for p, Initial residual = 0.013734896, Final residual = 0.00013504322, No Iterations 3
time step continuity errors : sum local = 1.8497049e-05, global = 2.6049663e-07, cumulative = 0.00014238774
ExecutionTime = 15.221625 s  ClockTime = 15 s

Time = 88s

smoothSolver:  Solving for Ux, Initial residual = 0.0012634795, Final residual = 4.3979629e-05, No Iterations 3
smoothSolver:  Solving for Uy, Initial residual = 0.0074756172, Final residual = 0.00025863736, No Iterations 3
smoothSolver:  Solving for Uz, Initial residual = 0.0010451235, Final residual = 3.6668819e-05, No Iterations 3
GAMG:  Solving for p, Initial residual = 0.013608798, Final residual = 8.3219337e-05, No Iterations 4
time step continuity errors : sum local = 1.1422976e-05, global = 1.3368994e-07, cumulative = 0.00014252143
ExecutionTime = 15.393163 s  ClockTime = 15 s

Time = 89s

smoothSolver:  Solving for Ux, Initial residual = 0.0012584509, Final residual = 4.3822542e-05, No Iterations 3
smoothSolver:  Solving for Uy, Initial residual = 0.0073657541, Final residual = 0.00025461783, No Iterations 3
smoothSolver:  Solving for Uz, Initial residual = 0.0010341098, Final residual = 3.629569e-05, No Iterations 3
GAMG:  Solving for p, Initial residual = 0.01355543, Final residual = 0.00013134265, No Iterations 3
time step continuity errors : sum local = 1.8058868e-05, global = 2.46493e-07, cumulative = 0.00014276792
ExecutionTime = 15.555104 s  ClockTime = 16 s

Time = 90s

smoothSolver:  Solving for Ux, Initial residual = 0.0012518585, Final residual = 4.3616267e-05, No Iterations 3
smoothSolver:  Solving for Uy, Initial residual = 0.0072568841, Final residual = 0.00025066445, No Iterations 3
smoothSolver:  Solving for Uz, Initial residual = 0.0010236244, Final residual = 3.5951139e-05, No Iterations 3
GAMG:  Solving for p, Initial residual = 0.013463236, Final residual = 0.00013366484, No Iterations 3
time step continuity errors : sum local = 1.8416328e-05, global = 2.4792048e-07, cumulative = 0.00014301584
ExecutionTime = 15.71899 s  ClockTime = 16 s

Time = 91s

smoothSolver:  Solving for Ux, Initial residual = 0.0012455298, Final residual = 4.341368e-05, No Iterations 3
smoothSolver:  Solving for Uy, Initial residual = 0.0071509931, Final residual = 0.00024681714, No Iterations 3
smoothSolver:  Solving for Uz, Initial residual = 0.0010132421, Final residual = 3.5606659e-05, No Iterations 3
GAMG:  Solving for p, Initial residual = 0.01337335, Final residual = 7.993935e-05, No Iterations 4
time step continuity errors : sum local = 1.1036511e-05, global = 1.2422136e-07, cumulative = 0.00014314006
ExecutionTime = 15.890077 s  ClockTime = 16 s

Time = 92s

smoothSolver:  Solving for Ux, Initial residual = 0.0012403997, Final residual = 4.3244675e-05, No Iterations 3
smoothSolver:  Solving for Uy, Initial residual = 0.0070514603, Final residual = 0.00024323095, No Iterations 3
smoothSolver:  Solving for Uz, Initial residual = 0.0010027168, Final residual = 3.5250423e-05, No Iterations 3
GAMG:  Solving for p, Initial residual = 0.013287532, Final residual = 0.0001259214, No Iterations 3
time step continuity errors : sum local = 1.7413165e-05, global = 2.2702734e-07, cumulative = 0.00014336709
ExecutionTime = 16.052916 s  ClockTime = 16 s

Time = 93s

smoothSolver:  Solving for Ux, Initial residual = 0.0012338743, Final residual = 4.3030202e-05, No Iterations 3
smoothSolver:  Solving for Uy, Initial residual = 0.0069581536, Final residual = 0.00023992278, No Iterations 3
smoothSolver:  Solving for Uz, Initial residual = 0.00099293745, Final residual = 3.492931e-05, No Iterations 3
GAMG:  Solving for p, Initial residual = 0.013132004, Final residual = 0.00012722741, No Iterations 3
time step continuity errors : sum local = 1.7629261e-05, global = 2.246523e-07, cumulative = 0.00014359174
ExecutionTime = 16.215179 s  ClockTime = 16 s

Time = 94s

smoothSolver:  Solving for Ux, Initial residual = 0.0012276059, Final residual = 4.2824062e-05, No Iterations 3
smoothSolver:  Solving for Uy, Initial residual = 0.0068733021, Final residual = 0.00023685828, No Iterations 3
smoothSolver:  Solving for Uz, Initial residual = 0.00098334781, Final residual = 3.4613148e-05, No Iterations 3
GAMG:  Solving for p, Initial residual = 0.013007389, Final residual = 7.4881804e-05, No Iterations 4
time step continuity errors : sum local = 1.0396751e-05, global = 1.1705057e-07, cumulative = 0.00014370879
ExecutionTime = 16.386566 s  ClockTime = 16 s

Time = 95s

smoothSolver:  Solving for Ux, Initial residual = 0.0012226089, Final residual = 4.2661451e-05, No Iterations 3
smoothSolver:  Solving for Uy, Initial residual = 0.0068002488, Final residual = 0.00023416412, No Iterations 3
smoothSolver:  Solving for Uz, Initial residual = 0.00097370728, Final residual = 3.4288286e-05, No Iterations 3
GAMG:  Solving for p, Initial residual = 0.01297125, Final residual = 0.00012259588, No Iterations 3
time step continuity errors : sum local = 1.7049845e-05, global = 2.0950665e-07, cumulative = 0.0001439183
ExecutionTime = 16.548161 s  ClockTime = 17 s

Time = 96s

smoothSolver:  Solving for Ux, Initial residual = 0.00121626, Final residual = 4.2461922e-05, No Iterations 3
smoothSolver:  Solving for Uy, Initial residual = 0.0067280812, Final residual = 0.00023153297, No Iterations 3
smoothSolver:  Solving for Uz, Initial residual = 0.0009644891, Final residual = 3.3987252e-05, No Iterations 3
GAMG:  Solving for p, Initial residual = 0.012929717, Final residual = 0.00012562179, No Iterations 3
time step continuity errors : sum local = 1.7505629e-05, global = 2.1072066e-07, cumulative = 0.00014412902
ExecutionTime = 16.708872 s  ClockTime = 17 s

Time = 97s

smoothSolver:  Solving for Ux, Initial residual = 0.0012101716, Final residual = 4.2273707e-05, No Iterations 3
smoothSolver:  Solving for Uy, Initial residual = 0.0066570016, Final residual = 0.00022899863, No Iterations 3
smoothSolver:  Solving for Uz, Initial residual = 0.0009552728, Final residual = 3.3686112e-05, No Iterations 3
GAMG:  Solving for p, Initial residual = 0.012843449, Final residual = 7.3924191e-05, No Iterations 4
time step continuity errors : sum local = 1.0321564e-05, global = 1.117714e-07, cumulative = 0.00014424079
ExecutionTime = 16.876817 s  ClockTime = 17 s

Time = 98s

smoothSolver:  Solving for Ux, Initial residual = 0.001205145, Final residual = 4.2135039e-05, No Iterations 3
smoothSolver:  Solving for Uy, Initial residual = 0.0065895734, Final residual = 0.00022651601, No Iterations 3
smoothSolver:  Solving for Uz, Initial residual = 0.00094580989, Final residual = 3.3372142e-05, No Iterations 3
GAMG:  Solving for p, Initial residual = 0.01275317, Final residual = 0.00012074301, No Iterations 3
time step continuity errors : sum local = 1.6885514e-05, global = 1.9737794e-07, cumulative = 0.00014443817
ExecutionTime = 17.038663 s  ClockTime = 17 s

Time = 99s

smoothSolver:  Solving for Ux, Initial residual = 0.0011986325, Final residual = 4.1959555e-05, No Iterations 3
smoothSolver:  Solving for Uy, Initial residual = 0.0065099915, Final residual = 0.00022365293, No Iterations 3
smoothSolver:  Solving for Uz, Initial residual = 0.00093654908, Final residual = 3.3074682e-05, No Iterations 3
GAMG:  Solving for p, Initial residual = 0.012645657, Final residual = 0.00012265756, No Iterations 3
time step continuity errors : sum local = 1.7185212e-05, global = 1.9592443e-07, cumulative = 0.00014463409
ExecutionTime = 17.201022 s  ClockTime = 17 s

Time = 100s

smoothSolver:  Solving for Ux, Initial residual = 0.0011922367, Final residual = 4.1797364e-05, No Iterations 3
smoothSolver:  Solving for Uy, Initial residual = 0.0064275314, Final residual = 0.00022068043, No Iterations 3
smoothSolver:  Solving for Uz, Initial residual = 0.0009272136, Final residual = 3.2772806e-05, No Iterations 3
GAMG:  Solving for p, Initial residual = 0.012552606, Final residual = 7.2914169e-05, No Iterations 4
time step continuity errors : sum local = 1.0233934e-05, global = 9.7319787e-08, cumulative = 0.00014473141
ExecutionTime = 17.374206 s  ClockTime = 17 s

Time = 101s

smoothSolver:  Solving for Ux, Initial residual = 0.0011866463, Final residual = 4.1660619e-05, No Iterations 3
smoothSolver:  Solving for Uy, Initial residual = 0.0063494548, Final residual = 0.00021786567, No Iterations 3
smoothSolver:  Solving for Uz, Initial residual = 0.00091770941, Final residual = 3.2460085e-05, No Iterations 3
GAMG:  Solving for p, Initial residual = 0.012485811, Final residual = 0.0001173422, No Iterations 3
time step continuity errors : sum local = 1.6492539e-05, global = 1.8057737e-07, cumulative = 0.00014491199
ExecutionTime = 17.539812 s  ClockTime = 18 s

Time = 102s

smoothSolver:  Solving for Ux, Initial residual = 0.001180019, Final residual = 4.1493562e-05, No Iterations 3
smoothSolver:  Solving for Uy, Initial residual = 0.0062732502, Final residual = 0.00021522829, No Iterations 3
smoothSolver:  Solving for Uz, Initial residual = 0.0009087793, Final residual = 3.2176865e-05, No Iterations 3
GAMG:  Solving for p, Initial residual = 0.012390911, Final residual = 0.00011931193, No Iterations 3
time step continuity errors : sum local = 1.6799284e-05, global = 1.8246403e-07, cumulative = 0.00014509445
ExecutionTime = 17.702682 s  ClockTime = 18 s

Time = 103s

smoothSolver:  Solving for Ux, Initial residual = 0.0011738102, Final residual = 4.133967e-05, No Iterations 3
smoothSolver:  Solving for Uy, Initial residual = 0.0062109776, Final residual = 0.00021307485, No Iterations 3
smoothSolver:  Solving for Uz, Initial residual = 0.00090011539, Final residual = 3.1900361e-05, No Iterations 3
GAMG:  Solving for p, Initial residual = 0.01231717, Final residual = 7.0342704e-05, No Iterations 4
time step continuity errors : sum local = 9.922007e-06, global = 9.5671983e-08, cumulative = 0.00014519013
ExecutionTime = 17.872222 s  ClockTime = 18 s

Time = 104s

smoothSolver:  Solving for Ux, Initial residual = 0.0011686863, Final residual = 4.1217013e-05, No Iterations 3
smoothSolver:  Solving for Uy, Initial residual = 0.0061652075, Final residual = 0.00021152633, No Iterations 3
smoothSolver:  Solving for Uz, Initial residual = 0.00089157937, Final residual = 3.1619702e-05, No Iterations 3
GAMG:  Solving for p, Initial residual = 0.012273875, Final residual = 0.00011523518, No Iterations 3
time step continuity errors : sum local = 1.6277888e-05, global = 1.8002109e-07, cumulative = 0.00014537015
ExecutionTime = 18.033701 s  ClockTime = 18 s

Time = 105s

smoothSolver:  Solving for Ux, Initial residual = 0.0011625988, Final residual = 4.1057704e-05, No Iterations 3
smoothSolver:  Solving for Uy, Initial residual = 0.0061166727, Final residual = 0.00020994925, No Iterations 3
smoothSolver:  Solving for Uz, Initial residual = 0.00088346362, Final residual = 3.1360771e-05, No Iterations 3
GAMG:  Solving for p, Initial residual = 0.012184757, Final residual = 0.0001172226, No Iterations 3
time step continuity errors : sum local = 1.6588146e-05, global = 1.8290208e-07, cumulative = 0.00014555305
ExecutionTime = 18.193781 s  ClockTime = 18 s

Time = 106s

smoothSolver:  Solving for Ux, Initial residual = 0.0011568137, Final residual = 4.0910789e-05, No Iterations 3
smoothSolver:  Solving for Uy, Initial residual = 0.0060699248, Final residual = 0.00020839797, No Iterations 3
smoothSolver:  Solving for Uz, Initial residual = 0.00087538174, Final residual = 3.1101773e-05, No Iterations 3
GAMG:  Solving for p, Initial residual = 0.012100921, Final residual = 6.8092773e-05, No Iterations 4
time step continuity errors : sum local = 9.6525882e-06, global = 9.803838e-08, cumulative = 0.00014565109
ExecutionTime = 18.363628 s  ClockTime = 18 s

Time = 107s

smoothSolver:  Solving for Ux, Initial residual = 0.0011518727, Final residual = 4.078927e-05, No Iterations 3
smoothSolver:  Solving for Uy, Initial residual = 0.0060258777, Final residual = 0.00020683768, No Iterations 3
smoothSolver:  Solving for Uz, Initial residual = 0.00086710075, Final residual = 3.0829204e-05, No Iterations 3
GAMG:  Solving for p, Initial residual = 0.012068473, Final residual = 0.00011257692, No Iterations 3
time step continuity errors : sum local = 1.5981102e-05, global = 1.7195874e-07, cumulative = 0.00014582305
ExecutionTime = 18.524986 s  ClockTime = 19 s

Time = 108s

smoothSolver:  Solving for Ux, Initial residual = 0.001145734, Final residual = 4.0631096e-05, No Iterations 3
smoothSolver:  Solving for Uy, Initial residual = 0.0059690585, Final residual = 0.00020480502, No Iterations 3
smoothSolver:  Solving for Uz, Initial residual = 0.00085896122, Final residual = 3.0571022e-05, No Iterations 3
GAMG:  Solving for p, Initial residual = 0.012001343, Final residual = 0.00011477658, No Iterations 3
time step continuity errors : sum local = 1.6321386e-05, global = 1.7059861e-07, cumulative = 0.00014599365
ExecutionTime = 18.688393 s  ClockTime = 19 s

Time = 109s

smoothSolver:  Solving for Ux, Initial residual = 0.0011397454, Final residual = 4.0470201e-05, No Iterations 3
smoothSolver:  Solving for Uy, Initial residual = 0.0059120783, Final residual = 0.0002027435, No Iterations 3
smoothSolver:  Solving for Uz, Initial residual = 0.00085084148, Final residual = 3.0310809e-05, No Iterations 3
GAMG:  Solving for p, Initial residual = 0.011899512, Final residual = 0.00011895873, No Iterations 3
time step continuity errors : sum local = 1.6944507e-05, global = 1.7367481e-07, cumulative = 0.00014616732
ExecutionTime = 18.849645 s  ClockTime = 19 s

Time = 110s

smoothSolver:  Solving for Ux, Initial residual = 0.0011339402, Final residual = 4.0309446e-05, No Iterations 3
smoothSolver:  Solving for Uy, Initial residual = 0.0058579318, Final residual = 0.00020084725, No Iterations 3
smoothSolver:  Solving for Uz, Initial residual = 0.00084277216, Final residual = 3.0049535e-05, No Iterations 3
GAMG:  Solving for p, Initial residual = 0.011794714, Final residual = 6.9233019e-05, No Iterations 4
time step continuity errors : sum local = 9.8775884e-06, global = 8.3122568e-08, cumulative = 0.00014625044
ExecutionTime = 19.020211 s  ClockTime = 19 s

Time = 111s

smoothSolver:  Solving for Ux, Initial residual = 0.0011287684, Final residual = 4.0159859e-05, No Iterations 3
smoothSolver:  Solving for Uy, Initial residual = 0.0058153614, Final residual = 0.00019937427, No Iterations 3
smoothSolver:  Solving for Uz, Initial residual = 0.00083481093, Final residual = 2.9783408e-05, No Iterations 3
GAMG:  Solving for p, Initial residual = 0.011736923, Final residual = 0.0001099317, No Iterations 3
time step continuity errors : sum local = 1.5703872e-05, global = 1.5438689e-07, cumulative = 0.00014640483
ExecutionTime = 19.182252 s  ClockTime = 19 s

Time = 112s

smoothSolver:  Solving for Ux, Initial residual = 0.0011226854, Final residual = 3.9979316e-05, No Iterations 3
smoothSolver:  Solving for Uy, Initial residual = 0.0057722623, Final residual = 0.00019796898, No Iterations 3
smoothSolver:  Solving for Uz, Initial residual = 0.00082723015, Final residual = 2.9539573e-05, No Iterations 3
GAMG:  Solving for p, Initial residual = 0.01164224, Final residual = 0.00010924408, No Iterations 3
time step continuity errors : sum local = 1.5631938e-05, global = 1.5077386e-07, cumulative = 0.0001465556
ExecutionTime = 19.343967 s  ClockTime = 19 s

Time = 113s

smoothSolver:  Solving for Ux, Initial residual = 0.0011168901, Final residual = 3.9801048e-05, No Iterations 3
smoothSolver:  Solving for Uy, Initial residual = 0.0057373813, Final residual = 0.00019689324, No Iterations 3
smoothSolver:  Solving for Uz, Initial residual = 0.00081987361, Final residual = 2.9299507e-05, No Iterations 3
GAMG:  Solving for p, Initial residual = 0.011555278, Final residual = 0.00011163195, No Iterations 3
time step continuity errors : sum local = 1.6001377e-05, global = 1.595938e-07, cumulative = 0.0001467152
ExecutionTime = 19.506097 s  ClockTime = 20 s

Time = 114s

smoothSolver:  Solving for Ux, Initial residual = 0.0011115104, Final residual = 3.9630096e-05, No Iterations 3
smoothSolver:  Solving for Uy, Initial residual = 0.0057085295, Final residual = 0.00019607349, No Iterations 3
smoothSolver:  Solving for Uz, Initial residual = 0.00081266441, Final residual = 2.9060803e-05, No Iterations 3
GAMG:  Solving for p, Initial residual = 0.011476867, Final residual = 6.4154724e-05, No Iterations 4
time step continuity errors : sum local = 9.2116802e-06, global = 8.6128794e-08, cumulative = 0.00014680133
ExecutionTime = 19.675177 s  ClockTime = 20 s

Time = 115s

smoothSolver:  Solving for Ux, Initial residual = 0.0011070127, Final residual = 3.9483501e-05, No Iterations 3
smoothSolver:  Solving for Uy, Initial residual = 0.0056885588, Final residual = 0.00019552148, No Iterations 3
smoothSolver:  Solving for Uz, Initial residual = 0.00080552114, Final residual = 2.8816023e-05, No Iterations 3
GAMG:  Solving for p, Initial residual = 0.011424047, Final residual = 0.00010510765, No Iterations 3
time step continuity errors : sum local = 1.5112929e-05, global = 1.5848766e-07, cumulative = 0.00014695981
ExecutionTime = 19.834025 s  ClockTime = 20 s

Time = 116s

smoothSolver:  Solving for Ux, Initial residual = 0.001101469, Final residual = 3.9301153e-05, No Iterations 3
smoothSolver:  Solving for Uy, Initial residual = 0.0056560193, Final residual = 0.00019451942, No Iterations 3
smoothSolver:  Solving for Uz, Initial residual = 0.00079847435, Final residual = 2.8580843e-05, No Iterations 3
GAMG:  Solving for p, Initial residual = 0.011349728, Final residual = 0.00010574188, No Iterations 3
time step continuity errors : sum local = 1.5229714e-05, global = 1.6277145e-07, cumulative = 0.00014712259
ExecutionTime = 19.993109 s  ClockTime = 20 s

Time = 117s

smoothSolver:  Solving for Ux, Initial residual = 0.0010960112, Final residual = 3.9114479e-05, No Iterations 3
smoothSolver:  Solving for Uy, Initial residual = 0.0056221221, Final residual = 0.00019345088, No Iterations 3
smoothSolver:  Solving for Uz, Initial residual = 0.00079142899, Final residual = 2.834359e-05, No Iterations 3
GAMG:  Solving for p, Initial residual = 0.011308451, Final residual = 0.00011021878, No Iterations 3
time step continuity errors : sum local = 1.5900837e-05, global = 1.7314221e-07, cumulative = 0.00014729573
ExecutionTime = 20.15298 s  ClockTime = 20 s

Time = 118s

smoothSolver:  Solving for Ux, Initial residual = 0.0010907197, Final residual = 3.8927259e-05, No Iterations 3
smoothSolver:  Solving for Uy, Initial residual = 0.0055896664, Final residual = 0.00019241431, No Iterations 3
smoothSolver:  Solving for Uz, Initial residual = 0.00078437507, Final residual = 2.8104742e-05, No Iterations 3
GAMG:  Solving for p, Initial residual = 0.011274221, Final residual = 6.6168519e-05, No Iterations 4
time step continuity errors : sum local = 9.5611463e-06, global = 8.3447162e-08, cumulative = 0.00014737917
ExecutionTime = 20.324079 s  ClockTime = 20 s

Time = 119s

smoothSolver:  Solving for Ux, Initial residual = 0.0010859564, Final residual = 3.8747859e-05, No Iterations 3
smoothSolver:  Solving for Uy, Initial residual = 0.00556557, Final residual = 0.000191664, No Iterations 3
smoothSolver:  Solving for Uz, Initial residual = 0.00077738155, Final residual = 2.7861486e-05, No Iterations 3
GAMG:  Solving for p, Initial residual = 0.011241081, Final residual = 0.00010563462, No Iterations 3
time step continuity errors : sum local = 1.5281929e-05, global = 1.5403528e-07, cumulative = 0.00014753321
ExecutionTime = 20.483462 s  ClockTime = 21 s

Time = 120s

smoothSolver:  Solving for Ux, Initial residual = 0.0010802862, Final residual = 3.8544272e-05, No Iterations 3
smoothSolver:  Solving for Uy, Initial residual = 0.005531291, Final residual = 0.00019060335, No Iterations 3
smoothSolver:  Solving for Uz, Initial residual = 0.00077056468, Final residual = 2.7631797e-05, No Iterations 3
GAMG:  Solving for p, Initial residual = 0.01115373, Final residual = 0.00010643043, No Iterations 3
time step continuity errors : sum local = 1.5420673e-05, global = 1.4783645e-07, cumulative = 0.00014768105
ExecutionTime = 20.643267 s  ClockTime = 21 s

Time = 121s

smoothSolver:  Solving for Ux, Initial residual = 0.0010747053, Final residual = 3.8337514e-05, No Iterations 3
smoothSolver:  Solving for Uy, Initial residual = 0.0054973559, Final residual = 0.00018953672, No Iterations 3
smoothSolver:  Solving for Uz, Initial residual = 0.00076377783, Final residual = 2.7400711e-05, No Iterations 3
GAMG:  Solving for p, Initial residual = 0.011065378, Final residual = 0.00010997535, No Iterations 3
time step continuity errors : sum local = 1.5958469e-05, global = 1.4825104e-07, cumulative = 0.0001478293
ExecutionTime = 20.804765 s  ClockTime = 21 s

Time = 122s

smoothSolver:  Solving for Ux, Initial residual = 0.001069343, Final residual = 3.8132915e-05, No Iterations 3
smoothSolver:  Solving for Uy, Initial residual = 0.0054635304, Final residual = 0.0001884925, No Iterations 3
smoothSolver:  Solving for Uz, Initial residual = 0.00075697248, Final residual = 2.7167529e-05, No Iterations 3
GAMG:  Solving for p, Initial residual = 0.010969011, Final residual = 6.6012944e-05, No Iterations 4
time step continuity errors : sum local = 9.5929338e-06, global = 6.9509614e-08, cumulative = 0.00014789881
ExecutionTime = 20.975891 s  ClockTime = 21 s

Time = 123s

smoothSolver:  Solving for Ux, Initial residual = 0.0010644942, Final residual = 3.7932641e-05, No Iterations 3
smoothSolver:  Solving for Uy, Initial residual = 0.005436597, Final residual = 0.00018766645, No Iterations 3
smoothSolver:  Solving for Uz, Initial residual = 0.0007502036, Final residual = 2.6928829e-05, No Iterations 3
GAMG:  Solving for p, Initial residual = 0.010904337, Final residual = 0.00010128142, No Iterations 3
time step continuity errors : sum local = 1.4732736e-05, global = 1.3672299e-07, cumulative = 0.00014803553
ExecutionTime = 21.137129 s  ClockTime = 21 s

Time = 124s

smoothSolver:  Solving for Ux, Initial residual = 0.0010589954, Final residual = 3.7718092e-05, No Iterations 3
smoothSolver:  Solving for Uy, Initial residual = 0.005400128, Final residual = 0.00018656022, No Iterations 3
smoothSolver:  Solving for Uz, Initial residual = 0.00074361472, Final residual = 2.6704428e-05, No Iterations 3
GAMG:  Solving for p, Initial residual = 0.010814857, Final residual = 0.0001011569, No Iterations 3
time step continuity errors : sum local = 1.4736508e-05, global = 1.3977794e-07, cumulative = 0.00014817531
ExecutionTime = 21.297105 s  ClockTime = 21 s

Time = 125s

smoothSolver:  Solving for Ux, Initial residual = 0.0010536993, Final residual = 3.7503653e-05, No Iterations 3
smoothSolver:  Solving for Uy, Initial residual = 0.0053694825, Final residual = 0.00018563403, No Iterations 3
smoothSolver:  Solving for Uz, Initial residual = 0.00073722285, Final residual = 2.6485643e-05, No Iterations 3
GAMG:  Solving for p, Initial residual = 0.01074048, Final residual = 0.00010461766, No Iterations 3
time step continuity errors : sum local = 1.5263694e-05, global = 1.5083224e-07, cumulative = 0.00014832614
ExecutionTime = 21.45919 s  ClockTime = 22 s

Time = 126s

smoothSolver:  Solving for Ux, Initial residual = 0.0010487164, Final residual = 3.7298908e-05, No Iterations 3
smoothSolver:  Solving for Uy, Initial residual = 0.005347095, Final residual = 0.00018498859, No Iterations 3
smoothSolver:  Solving for Uz, Initial residual = 0.00073103528, Final residual = 2.6272035e-05, No Iterations 3
GAMG:  Solving for p, Initial residual = 0.010676519, Final residual = 6.2361635e-05, No Iterations 4
time step continuity errors : sum local = 9.1120415e-06, global = 8.3034855e-08, cumulative = 0.00014840918
ExecutionTime = 21.631344 s  ClockTime = 22 s

Time = 127s

smoothSolver:  Solving for Ux, Initial residual = 0.0010444946, Final residual = 3.711598e-05, No Iterations 3
smoothSolver:  Solving for Uy, Initial residual = 0.0053372969, Final residual = 0.00018479269, No Iterations 3
smoothSolver:  Solving for Uz, Initial residual = 0.00072512965, Final residual = 2.6061093e-05, No Iterations 3
GAMG:  Solving for p, Initial residual = 0.010639981, Final residual = 9.9981365e-05, No Iterations 3
time step continuity errors : sum local = 1.4625915e-05, global = 1.4903028e-07, cumulative = 0.00014855821
ExecutionTime = 21.792531 s  ClockTime = 22 s

Time = 128s

smoothSolver:  Solving for Ux, Initial residual = 0.0010394746, Final residual = 3.6918055e-05, No Iterations 3
smoothSolver:  Solving for Uy, Initial residual = 0.0053163989, Final residual = 0.00018418461, No Iterations 3
smoothSolver:  Solving for Uz, Initial residual = 0.00071929399, Final residual = 2.5858931e-05, No Iterations 3
GAMG:  Solving for p, Initial residual = 0.010560158, Final residual = 0.00010104485, No Iterations 3
time step continuity errors : sum local = 1.4803833e-05, global = 1.5061836e-07, cumulative = 0.00014870882
ExecutionTime = 21.953244 s  ClockTime = 22 s

Time = 129s

smoothSolver:  Solving for Ux, Initial residual = 0.0010346863, Final residual = 3.6723949e-05, No Iterations 3
smoothSolver:  Solving for Uy, Initial residual = 0.0052971994, Final residual = 0.00018360153, No Iterations 3
smoothSolver:  Solving for Uz, Initial residual = 0.00071355011, Final residual = 2.5657809e-05, No Iterations 3
GAMG:  Solving for p, Initial residual = 0.010498838, Final residual = 0.00010444242, No Iterations 3
time step continuity errors : sum local = 1.5324079e-05, global = 1.5503465e-07, cumulative = 0.00014886386
ExecutionTime = 22.114845 s  ClockTime = 22 s

Time = 130s

smoothSolver:  Solving for Ux, Initial residual = 0.001030159, Final residual = 3.6532982e-05, No Iterations 3
smoothSolver:  Solving for Uy, Initial residual = 0.0052785928, Final residual = 0.00018304346, No Iterations 3
smoothSolver:  Solving for Uz, Initial residual = 0.00070785198, Final residual = 2.5456143e-05, No Iterations 3
[...]
GAMG:  Solving for p, Initial residual = 1.5315968e-05, Final residual = 6.9207435e-08, No Iterations 3
time step continuity errors : sum local = 1.2095367e-08, global = -6.8950464e-10, cumulative = 0.00016507345
ExecutionTime = 154.71435 s  ClockTime = 157 s

Time = 948s

smoothSolver:  Solving for Ux, Initial residual = 1.8794589e-06, Final residual = 7.0274046e-08, No Iterations 3
smoothSolver:  Solving for Uy, Initial residual = 9.4649169e-06, Final residual = 3.5349648e-07, No Iterations 3
smoothSolver:  Solving for Uz, Initial residual = 6.8292538e-07, Final residual = 2.6153001e-08, No Iterations 3
GAMG:  Solving for p, Initial residual = 1.5110745e-05, Final residual = 6.8452476e-08, No Iterations 3
time step continuity errors : sum local = 1.1963406e-08, global = -6.7296205e-10, cumulative = 0.00016507277
ExecutionTime = 154.87511 s  ClockTime = 157 s

Time = 949s

smoothSolver:  Solving for Ux, Initial residual = 1.850863e-06, Final residual = 6.9213068e-08, No Iterations 3
smoothSolver:  Solving for Uy, Initial residual = 9.3606076e-06, Final residual = 3.5034543e-07, No Iterations 3
smoothSolver:  Solving for Uz, Initial residual = 6.7286385e-07, Final residual = 2.5806457e-08, No Iterations 3
GAMG:  Solving for p, Initial residual = 1.4907649e-05, Final residual = 6.7702024e-08, No Iterations 3
time step continuity errors : sum local = 1.1832234e-08, global = -6.5433025e-10, cumulative = 0.00016507212
ExecutionTime = 155.03556 s  ClockTime = 157 s

Time = 950s

smoothSolver:  Solving for Ux, Initial residual = 1.8226127e-06, Final residual = 6.816233e-08, No Iterations 3
smoothSolver:  Solving for Uy, Initial residual = 9.2576489e-06, Final residual = 3.4721428e-07, No Iterations 3
smoothSolver:  Solving for Uz, Initial residual = 6.6287909e-07, Final residual = 2.5463082e-08, No Iterations 3
GAMG:  Solving for p, Initial residual = 1.4708007e-05, Final residual = 6.6954684e-08, No Iterations 3
time step continuity errors : sum local = 1.1701606e-08, global = -6.3319788e-10, cumulative = 0.00016507149
ExecutionTime = 155.19828 s  ClockTime = 157 s

Time = 951s

smoothSolver:  Solving for Ux, Initial residual = 1.7947393e-06, Final residual = 6.7128681e-08, No Iterations 3
smoothSolver:  Solving for Uy, Initial residual = 9.1559583e-06, Final residual = 3.4409308e-07, No Iterations 3
smoothSolver:  Solving for Uz, Initial residual = 6.5298994e-07, Final residual = 2.5121653e-08, No Iterations 3
GAMG:  Solving for p, Initial residual = 1.4511261e-05, Final residual = 6.6232502e-08, No Iterations 3
time step continuity errors : sum local = 1.1575375e-08, global = -6.0922654e-10, cumulative = 0.00016507088
ExecutionTime = 155.35914 s  ClockTime = 157 s

Time = 952s

smoothSolver:  Solving for Ux, Initial residual = 1.7673084e-06, Final residual = 6.6108291e-08, No Iterations 3
smoothSolver:  Solving for Uy, Initial residual = 9.0553154e-06, Final residual = 3.4097987e-07, No Iterations 3
smoothSolver:  Solving for Uz, Initial residual = 6.4319102e-07, Final residual = 2.4780733e-08, No Iterations 3
GAMG:  Solving for p, Initial residual = 1.4316713e-05, Final residual = 6.5547746e-08, No Iterations 3
time step continuity errors : sum local = 1.1455686e-08, global = -5.8175346e-10, cumulative = 0.00016507029
ExecutionTime = 155.51936 s  ClockTime = 158 s

Time = 953s

smoothSolver:  Solving for Ux, Initial residual = 1.7403024e-06, Final residual = 6.5099294e-08, No Iterations 3
smoothSolver:  Solving for Uy, Initial residual = 8.9557214e-06, Final residual = 3.378652e-07, No Iterations 3
smoothSolver:  Solving for Uz, Initial residual = 6.334824e-07, Final residual = 2.4440014e-08, No Iterations 3
GAMG:  Solving for p, Initial residual = 1.412458e-05, Final residual = 6.4909229e-08, No Iterations 3
time step continuity errors : sum local = 1.1344078e-08, global = -5.5056152e-10, cumulative = 0.00016506974
ExecutionTime = 155.68093 s  ClockTime = 158 s

Time = 954s

smoothSolver:  Solving for Ux, Initial residual = 1.7136468e-06, Final residual = 6.4102914e-08, No Iterations 3
smoothSolver:  Solving for Uy, Initial residual = 8.8568881e-06, Final residual = 3.3473594e-07, No Iterations 3
smoothSolver:  Solving for Uz, Initial residual = 6.2384039e-07, Final residual = 2.4099323e-08, No Iterations 3
GAMG:  Solving for p, Initial residual = 1.3935029e-05, Final residual = 6.4367737e-08, No Iterations 3
time step continuity errors : sum local = 1.1249428e-08, global = -5.1646254e-10, cumulative = 0.00016506923
ExecutionTime = 155.84155 s  ClockTime = 158 s

Time = 955s

smoothSolver:  Solving for Ux, Initial residual = 1.6873988e-06, Final residual = 6.311897e-08, No Iterations 3
smoothSolver:  Solving for Uy, Initial residual = 8.7580951e-06, Final residual = 3.3159431e-07, No Iterations 3
smoothSolver:  Solving for Uz, Initial residual = 6.142783e-07, Final residual = 2.375981e-08, No Iterations 3
GAMG:  Solving for p, Initial residual = 1.3748413e-05, Final residual = 6.381758e-08, No Iterations 3
time step continuity errors : sum local = 1.1153264e-08, global = -4.7737535e-10, cumulative = 0.00016506875
ExecutionTime = 156.00067 s  ClockTime = 158 s

Time = 956s

smoothSolver:  Solving for Ux, Initial residual = 1.6615206e-06, Final residual = 6.2152985e-08, No Iterations 3
smoothSolver:  Solving for Uy, Initial residual = 8.6597237e-06, Final residual = 3.2839113e-07, No Iterations 3
smoothSolver:  Solving for Uz, Initial residual = 6.0480858e-07, Final residual = 2.3419699e-08, No Iterations 3
GAMG:  Solving for p, Initial residual = 1.3565627e-05, Final residual = 6.3297169e-08, No Iterations 3
time step continuity errors : sum local = 1.1062298e-08, global = -4.3374505e-10, cumulative = 0.00016506832
ExecutionTime = 156.1614 s  ClockTime = 158 s

Time = 957s

smoothSolver:  Solving for Ux, Initial residual = 1.6359656e-06, Final residual = 6.1197112e-08, No Iterations 3
smoothSolver:  Solving for Uy, Initial residual = 8.5617895e-06, Final residual = 3.2513819e-07, No Iterations 3
smoothSolver:  Solving for Uz, Initial residual = 5.953809e-07, Final residual = 2.3078682e-08, No Iterations 3
GAMG:  Solving for p, Initial residual = 1.3384996e-05, Final residual = 6.2740148e-08, No Iterations 3
time step continuity errors : sum local = 1.0964935e-08, global = -3.8388801e-10, cumulative = 0.00016506793
ExecutionTime = 156.3224 s  ClockTime = 158 s

Time = 958s

smoothSolver:  Solving for Ux, Initial residual = 1.6107526e-06, Final residual = 6.0254736e-08, No Iterations 3
smoothSolver:  Solving for Uy, Initial residual = 8.4636641e-06, Final residual = 3.2180042e-07, No Iterations 3
smoothSolver:  Solving for Uz, Initial residual = 5.8599024e-07, Final residual = 2.2736816e-08, No Iterations 3
GAMG:  Solving for p, Initial residual = 1.3206839e-05, Final residual = 6.2262814e-08, No Iterations 3
time step continuity errors : sum local = 1.0881499e-08, global = -3.3064544e-10, cumulative = 0.0001650676
ExecutionTime = 156.48506 s  ClockTime = 159 s

Time = 959s

smoothSolver:  Solving for Ux, Initial residual = 1.5858166e-06, Final residual = 5.9320811e-08, No Iterations 3
smoothSolver:  Solving for Uy, Initial residual = 8.3653661e-06, Final residual = 3.1835521e-07, No Iterations 3
smoothSolver:  Solving for Uz, Initial residual = 5.766887e-07, Final residual = 2.2394834e-08, No Iterations 3
GAMG:  Solving for p, Initial residual = 1.3030919e-05, Final residual = 6.1741372e-08, No Iterations 3
time step continuity errors : sum local = 1.0790355e-08, global = -2.7131792e-10, cumulative = 0.00016506733
ExecutionTime = 156.64582 s  ClockTime = 159 s

Time = 960s

smoothSolver:  Solving for Ux, Initial residual = 1.5612679e-06, Final residual = 5.8391025e-08, No Iterations 3
smoothSolver:  Solving for Uy, Initial residual = 8.2671806e-06, Final residual = 3.148421e-07, No Iterations 3
smoothSolver:  Solving for Uz, Initial residual = 5.6746621e-07, Final residual = 2.2052102e-08, No Iterations 3
GAMG:  Solving for p, Initial residual = 1.2856915e-05, Final residual = 6.1155754e-08, No Iterations 3
time step continuity errors : sum local = 1.0687995e-08, global = -2.0692112e-10, cumulative = 0.00016506712
ExecutionTime = 156.8058 s  ClockTime = 159 s

Time = 961s

smoothSolver:  Solving for Ux, Initial residual = 1.5371077e-06, Final residual = 5.7467974e-08, No Iterations 3
smoothSolver:  Solving for Uy, Initial residual = 8.1690314e-06, Final residual = 3.1125273e-07, No Iterations 3
smoothSolver:  Solving for Uz, Initial residual = 5.5830741e-07, Final residual = 2.1709927e-08, No Iterations 3
GAMG:  Solving for p, Initial residual = 1.2685469e-05, Final residual = 6.0693073e-08, No Iterations 3
time step continuity errors : sum local = 1.0607121e-08, global = -1.3934836e-10, cumulative = 0.00016506698
ExecutionTime = 156.9661 s  ClockTime = 159 s

Time = 962s

smoothSolver:  Solving for Ux, Initial residual = 1.5132737e-06, Final residual = 5.6552602e-08, No Iterations 3
smoothSolver:  Solving for Uy, Initial residual = 8.0707782e-06, Final residual = 3.0757227e-07, No Iterations 3
smoothSolver:  Solving for Uz, Initial residual = 5.4921108e-07, Final residual = 2.1367587e-08, No Iterations 3
GAMG:  Solving for p, Initial residual = 1.2516362e-05, Final residual = 6.0150168e-08, No Iterations 3
time step continuity errors : sum local = 1.0512226e-08, global = -7.4475779e-11, cumulative = 0.00016506691
ExecutionTime = 157.12639 s  ClockTime = 159 s

Time = 963s

smoothSolver:  Solving for Ux, Initial residual = 1.4897264e-06, Final residual = 5.5643802e-08, No Iterations 3
smoothSolver:  Solving for Uy, Initial residual = 7.9725746e-06, Final residual = 3.0381698e-07, No Iterations 3
smoothSolver:  Solving for Uz, Initial residual = 5.4023411e-07, Final residual = 2.1025637e-08, No Iterations 3
GAMG:  Solving for p, Initial residual = 1.2348522e-05, Final residual = 5.9437476e-08, No Iterations 3
time step continuity errors : sum local = 1.0387659e-08, global = -4.2235913e-12, cumulative = 0.00016506691
ExecutionTime = 157.28898 s  ClockTime = 159 s

Time = 964s

smoothSolver:  Solving for Ux, Initial residual = 1.4665443e-06, Final residual = 5.4742431e-08, No Iterations 3
smoothSolver:  Solving for Uy, Initial residual = 7.8740661e-06, Final residual = 3.0003059e-07, No Iterations 3
smoothSolver:  Solving for Uz, Initial residual = 5.3132246e-07, Final residual = 2.0683596e-08, No Iterations 3
GAMG:  Solving for p, Initial residual = 1.2183285e-05, Final residual = 5.8828383e-08, No Iterations 3
time step continuity errors : sum local = 1.0281198e-08, global = 6.8276867e-11, cumulative = 0.00016506697
ExecutionTime = 157.45137 s  ClockTime = 160 s

Time = 965s

smoothSolver:  Solving for Ux, Initial residual = 1.4436612e-06, Final residual = 5.3848031e-08, No Iterations 3
smoothSolver:  Solving for Uy, Initial residual = 7.7753242e-06, Final residual = 2.9615927e-07, No Iterations 3
smoothSolver:  Solving for Uz, Initial residual = 5.2249166e-07, Final residual = 2.0342029e-08, No Iterations 3
GAMG:  Solving for p, Initial residual = 1.201947e-05, Final residual = 5.8219879e-08, No Iterations 3
time step continuity errors : sum local = 1.017484e-08, global = 1.3860395e-10, cumulative = 0.00016506711
ExecutionTime = 157.61067 s  ClockTime = 160 s

Time = 966s

smoothSolver:  Solving for Ux, Initial residual = 1.421099e-06, Final residual = 5.2961465e-08, No Iterations 3
smoothSolver:  Solving for Uy, Initial residual = 7.6760519e-06, Final residual = 2.9225297e-07, No Iterations 3
smoothSolver:  Solving for Uz, Initial residual = 5.1373698e-07, Final residual = 2.0001633e-08, No Iterations 3
GAMG:  Solving for p, Initial residual = 1.1858353e-05, Final residual = 5.7565533e-08, No Iterations 3
time step continuity errors : sum local = 1.0060471e-08, global = 2.0769378e-10, cumulative = 0.00016506732
ExecutionTime = 157.77169 s  ClockTime = 160 s

Time = 967s

smoothSolver:  Solving for Ux, Initial residual = 1.398803e-06, Final residual = 5.2086161e-08, No Iterations 3
smoothSolver:  Solving for Uy, Initial residual = 7.5769114e-06, Final residual = 2.8830723e-07, No Iterations 3
smoothSolver:  Solving for Uz, Initial residual = 5.0507956e-07, Final residual = 1.9662152e-08, No Iterations 3
GAMG:  Solving for p, Initial residual = 1.1699629e-05, Final residual = 5.6848592e-08, No Iterations 3
time step continuity errors : sum local = 9.9351626e-09, global = 2.7597064e-10, cumulative = 0.0001650676
ExecutionTime = 157.93194 s  ClockTime = 160 s

Time = 968s

smoothSolver:  Solving for Ux, Initial residual = 1.3768119e-06, Final residual = 5.1223018e-08, No Iterations 3
smoothSolver:  Solving for Uy, Initial residual = 7.477665e-06, Final residual = 2.8436196e-07, No Iterations 3
smoothSolver:  Solving for Uz, Initial residual = 4.9650929e-07, Final residual = 1.9322944e-08, No Iterations 3
GAMG:  Solving for p, Initial residual = 1.1541213e-05, Final residual = 5.5915393e-08, No Iterations 3
time step continuity errors : sum local = 9.7720603e-09, global = 3.3636164e-10, cumulative = 0.00016506793
ExecutionTime = 158.09187 s  ClockTime = 160 s

Time = 969s

smoothSolver:  Solving for Ux, Initial residual = 1.3552214e-06, Final residual = 5.0368939e-08, No Iterations 3
smoothSolver:  Solving for Uy, Initial residual = 7.3789152e-06, Final residual = 2.8042698e-07, No Iterations 3
smoothSolver:  Solving for Uz, Initial residual = 4.8801483e-07, Final residual = 1.8985934e-08, No Iterations 3
GAMG:  Solving for p, Initial residual = 1.1384858e-05, Final residual = 5.5144532e-08, No Iterations 3
time step continuity errors : sum local = 9.6373294e-09, global = 3.9202968e-10, cumulative = 0.00016506832
ExecutionTime = 158.25286 s  ClockTime = 160 s

Time = 970s

smoothSolver:  Solving for Ux, Initial residual = 1.3339092e-06, Final residual = 4.9525863e-08, No Iterations 3
smoothSolver:  Solving for Uy, Initial residual = 7.2804827e-06, Final residual = 2.7646462e-07, No Iterations 3
smoothSolver:  Solving for Uz, Initial residual = 4.7961766e-07, Final residual = 1.8652044e-08, No Iterations 3
GAMG:  Solving for p, Initial residual = 1.1231027e-05, Final residual = 5.4372743e-08, No Iterations 3
time step continuity errors : sum local = 9.5024367e-09, global = 4.3864947e-10, cumulative = 0.00016506876
ExecutionTime = 158.41267 s  ClockTime = 161 s

Time = 971s

smoothSolver:  Solving for Ux, Initial residual = 1.3128583e-06, Final residual = 4.8692967e-08, No Iterations 3
smoothSolver:  Solving for Uy, Initial residual = 7.1825376e-06, Final residual = 2.7250578e-07, No Iterations 3
smoothSolver:  Solving for Uz, Initial residual = 4.7132738e-07, Final residual = 1.8320116e-08, No Iterations 3
GAMG:  Solving for p, Initial residual = 1.107894e-05, Final residual = 5.3563289e-08, No Iterations 3
time step continuity errors : sum local = 9.3609619e-09, global = 4.7440239e-10, cumulative = 0.00016506924
ExecutionTime = 158.57589 s  ClockTime = 161 s

Time = 972s

smoothSolver:  Solving for Ux, Initial residual = 1.2921635e-06, Final residual = 4.7875391e-08, No Iterations 3
smoothSolver:  Solving for Uy, Initial residual = 7.0852484e-06, Final residual = 2.6854715e-07, No Iterations 3
smoothSolver:  Solving for Uz, Initial residual = 4.6310388e-07, Final residual = 1.7990524e-08, No Iterations 3
GAMG:  Solving for p, Initial residual = 1.0928821e-05, Final residual = 5.2762335e-08, No Iterations 3
time step continuity errors : sum local = 9.2209729e-09, global = 5.0252202e-10, cumulative = 0.00016506974
ExecutionTime = 158.73782 s  ClockTime = 161 s

Time = 973s

smoothSolver:  Solving for Ux, Initial residual = 1.2717618e-06, Final residual = 4.7070902e-08, No Iterations 3
smoothSolver:  Solving for Uy, Initial residual = 6.9881947e-06, Final residual = 2.6460436e-07, No Iterations 3
smoothSolver:  Solving for Uz, Initial residual = 4.5500749e-07, Final residual = 1.7663842e-08, No Iterations 3
GAMG:  Solving for p, Initial residual = 1.078085e-05, Final residual = 5.1964073e-08, No Iterations 3
time step continuity errors : sum local = 9.0814548e-09, global = 5.2289438e-10, cumulative = 0.00016507026
ExecutionTime = 158.89938 s  ClockTime = 161 s

Time = 974s

smoothSolver:  Solving for Ux, Initial residual = 1.2516335e-06, Final residual = 4.6281191e-08, No Iterations 3
smoothSolver:  Solving for Uy, Initial residual = 6.8912467e-06, Final residual = 2.6069254e-07, No Iterations 3
smoothSolver:  Solving for Uz, Initial residual = 4.4706687e-07, Final residual = 1.7341509e-08, No Iterations 3
GAMG:  Solving for p, Initial residual = 1.0634589e-05, Final residual = 5.117618e-08, No Iterations 3
time step continuity errors : sum local = 8.9437491e-09, global = 5.3740381e-10, cumulative = 0.0001650708
ExecutionTime = 159.05934 s  ClockTime = 161 s

Time = 975s

smoothSolver:  Solving for Ux, Initial residual = 1.2318691e-06, Final residual = 4.5508742e-08, No Iterations 3
smoothSolver:  Solving for Uy, Initial residual = 6.7945117e-06, Final residual = 2.5680609e-07, No Iterations 3
smoothSolver:  Solving for Uz, Initial residual = 4.3924385e-07, Final residual = 1.7023569e-08, No Iterations 3
GAMG:  Solving for p, Initial residual = 1.0489947e-05, Final residual = 5.0402647e-08, No Iterations 3
time step continuity errors : sum local = 8.8085537e-09, global = 5.4788205e-10, cumulative = 0.00016507135
ExecutionTime = 159.22233 s  ClockTime = 161 s

Time = 976s

smoothSolver:  Solving for Ux, Initial residual = 1.2124662e-06, Final residual = 4.475008e-08, No Iterations 3
smoothSolver:  Solving for Uy, Initial residual = 6.6986668e-06, Final residual = 2.5293753e-07, No Iterations 3
smoothSolver:  Solving for Uz, Initial residual = 4.3153245e-07, Final residual = 1.670887e-08, No Iterations 3
GAMG:  Solving for p, Initial residual = 1.0347015e-05, Final residual = 4.9658538e-08, No Iterations 3
time step continuity errors : sum local = 8.6785007e-09, global = 5.5575042e-10, cumulative = 0.0001650719
ExecutionTime = 159.38306 s  ClockTime = 161 s

Time = 977s

smoothSolver:  Solving for Ux, Initial residual = 1.1933799e-06, Final residual = 4.4010854e-08, No Iterations 3
smoothSolver:  Solving for Uy, Initial residual = 6.6035459e-06, Final residual = 2.490903e-07, No Iterations 3
smoothSolver:  Solving for Uz, Initial residual = 4.2394891e-07, Final residual = 1.639803e-08, No Iterations 3
GAMG:  Solving for p, Initial residual = 1.0206124e-05, Final residual = 4.8978492e-08, No Iterations 3
time step continuity errors : sum local = 8.5596442e-09, global = 5.6190415e-10, cumulative = 0.00016507247
ExecutionTime = 159.54272 s  ClockTime = 162 s

Time = 978s

smoothSolver:  Solving for Ux, Initial residual = 1.1746873e-06, Final residual = 4.3293898e-08, No Iterations 3
smoothSolver:  Solving for Uy, Initial residual = 6.5096807e-06, Final residual = 2.4525392e-07, No Iterations 3
smoothSolver:  Solving for Uz, Initial residual = 4.1649748e-07, Final residual = 1.6091606e-08, No Iterations 3
GAMG:  Solving for p, Initial residual = 1.0067422e-05, Final residual = 4.8347196e-08, No Iterations 3
time step continuity errors : sum local = 8.4493076e-09, global = 5.6664329e-10, cumulative = 0.00016507303
ExecutionTime = 159.70262 s  ClockTime = 162 s

Time = 979s

smoothSolver:  Solving for Ux, Initial residual = 1.1563676e-06, Final residual = 4.2594825e-08, No Iterations 3
smoothSolver:  Solving for Uy, Initial residual = 6.416933e-06, Final residual = 2.4144705e-07, No Iterations 3
smoothSolver:  Solving for Uz, Initial residual = 4.0918203e-07, Final residual = 1.5789058e-08, No Iterations 3
GAMG:  Solving for p, Initial residual = 9.9306933e-06, Final residual = 4.7733166e-08, No Iterations 3
time step continuity errors : sum local = 8.3419888e-09, global = 5.7007763e-10, cumulative = 0.0001650736
ExecutionTime = 159.86249 s  ClockTime = 162 s


SIMPLE solution converged in 979 iterations

End

Finalising parallel run
