/*---------------------------------------------------------------------------*\
  =========                 |
  \\      /  F ield         | OpenFOAM: The Open Source CFD Toolbox
   \\    /   O peration     | Website:  https://openfoam.org
    \\  /    A nd           | Version:  11
     \\/     M anipulation  |
\*---------------------------------------------------------------------------*/
Build  : 11-e1fc8c682ae6
Exec   : foamRun -solver incompressibleFluid -parallel
Date   : Feb 08 2026
Time   : 11:46:02
Host   : "ip-172-31-18-192"
PID    : 126468
I/O    : uncollated
Case   : /home/ubuntu/cases/bifurcation_angle45_500_ascii/Re100
nProcs : 16
Slaves : 
15
(
"ip-172-31-18-192.126469"
"ip-172-31-18-192.126470"
"ip-172-31-18-192.126471"
"ip-172-31-18-192.126472"
"ip-172-31-18-192.126473"
"ip-172-31-18-192.126474"
"ip-172-31-18-192.126475"
"ip-172-31-18-192.126476"
"ip-172-31-18-192.126477"
"ip-172-31-18-192.126478"
"ip-172-31-18-192.126479"
"ip-172-31-18-192.126480"
"ip-172-31-18-192.126481"
"ip-172-31-18-192.126482"
"ip-172-31-18-192.126483"
)

Pstream initialised with:
    floatTransfer      : false
    nProcsSimpleSum    : 0
    commsType          : nonBlocking
    polling iterations : 0
sigFpe : Enabling floating point exception trapping (FOAM_SIGFPE).
fileModificationChecking : Monitoring run-time modified files using timeStampMaster (fileModificationSkew 10)
allowSystemOperations : Allowing user-supplied system call operations

// * * * * * * * * * * * * * * * * * * * * * * * * * * * * * * * * * * * * * //
Create time

Create mesh for time = 0

Selecting solver incompressibleFluid
Selecting viscosity model Newtonian
Selecting turbulence model type laminar
Selecting laminar stress model Stokes
No MRF models present


SIMPLE: Convergence criteria found
        p: tolerance 1e-05
        U: tolerance 1e-05


SIMPLE: Operating solver in steady-state mode with 1 outer corrector
SIMPLE: Operating solver in SIMPLE mode



Starting time loop

wallShearStress wallShearStress:
    processing wall patches: 
        wall-fluid_domain

Time = 1s

smoothSolver:  Solving for Ux, Initial residual = 1, Final residual = 0.050091552, No Iterations 1
smoothSolver:  Solving for Uy, Initial residual = 1, Final residual = 0.046641398, No Iterations 1
smoothSolver:  Solving for Uz, Initial residual = 1, Final residual = 0.037342396, No Iterations 1
GAMG:  Solving for p, Initial residual = 1, Final residual = 0.0073870252, No Iterations 10
time step continuity errors : sum local = 7.558518e-05, global = -1.0791482e-06, cumulative = -1.0791482e-06
ExecutionTime = 0.521907 s  ClockTime = 1 s

Time = 2s

smoothSolver:  Solving for Ux, Initial residual = 0.25854032, Final residual = 0.018283969, No Iterations 2
smoothSolver:  Solving for Uy, Initial residual = 0.26844063, Final residual = 0.011191616, No Iterations 2
smoothSolver:  Solving for Uz, Initial residual = 0.35725921, Final residual = 0.011600538, No Iterations 3
GAMG:  Solving for p, Initial residual = 0.20487054, Final residual = 0.0011455718, No Iterations 6
time step continuity errors : sum local = 0.0017731958, global = -5.6657461e-05, cumulative = -5.773661e-05
ExecutionTime = 0.66867 s  ClockTime = 1 s

Time = 3s

smoothSolver:  Solving for Ux, Initial residual = 0.21191955, Final residual = 0.020582666, No Iterations 2
smoothSolver:  Solving for Uy, Initial residual = 0.11994526, Final residual = 0.0067854, No Iterations 2
smoothSolver:  Solving for Uz, Initial residual = 0.57265937, Final residual = 0.020034149, No Iterations 3
GAMG:  Solving for p, Initial residual = 0.11976505, Final residual = 0.0011093793, No Iterations 3
time step continuity errors : sum local = 0.0051589669, global = 0.0001585123, cumulative = 0.00010077569
ExecutionTime = 0.791575 s  ClockTime = 1 s

Time = 4s

smoothSolver:  Solving for Ux, Initial residual = 0.13283636, Final residual = 0.0042490044, No Iterations 3
smoothSolver:  Solving for Uy, Initial residual = 0.065088347, Final residual = 0.0037292288, No Iterations 2
smoothSolver:  Solving for Uz, Initial residual = 0.38736377, Final residual = 0.013581686, No Iterations 3
GAMG:  Solving for p, Initial residual = 0.08024207, Final residual = 0.00031525567, No Iterations 6
time step continuity errors : sum local = 0.0013614185, global = 2.9207489e-05, cumulative = 0.00012998318
ExecutionTime = 0.937321 s  ClockTime = 1 s

Time = 5s

smoothSolver:  Solving for Ux, Initial residual = 0.080854469, Final residual = 0.0069750654, No Iterations 2
smoothSolver:  Solving for Uy, Initial residual = 0.2095667, Final residual = 0.013259675, No Iterations 2
smoothSolver:  Solving for Uz, Initial residual = 0.13621266, Final residual = 0.0047997074, No Iterations 3
GAMG:  Solving for p, Initial residual = 0.10042304, Final residual = 0.00072426369, No Iterations 6
time step continuity errors : sum local = 0.0013922113, global = 5.6162355e-05, cumulative = 0.00018614553
ExecutionTime = 1.083414 s  ClockTime = 1 s

Time = 6s

smoothSolver:  Solving for Ux, Initial residual = 0.10717265, Final residual = 0.0084431067, No Iterations 2
smoothSolver:  Solving for Uy, Initial residual = 0.39416995, Final residual = 0.024205226, No Iterations 2
smoothSolver:  Solving for Uz, Initial residual = 0.10598582, Final residual = 0.0036491811, No Iterations 3
GAMG:  Solving for p, Initial residual = 0.34759496, Final residual = 0.0029067749, No Iterations 4
time step continuity errors : sum local = 0.0041089113, global = 9.9993414e-05, cumulative = 0.00028613895
ExecutionTime = 1.213355 s  ClockTime = 2 s

Time = 7s

smoothSolver:  Solving for Ux, Initial residual = 0.13720293, Final residual = 0.012277556, No Iterations 2
smoothSolver:  Solving for Uy, Initial residual = 0.22818047, Final residual = 0.013412166, No Iterations 2
smoothSolver:  Solving for Uz, Initial residual = 0.26204529, Final residual = 0.0091307016, No Iterations 3
GAMG:  Solving for p, Initial residual = 0.21813513, Final residual = 0.0010344413, No Iterations 4
time step continuity errors : sum local = 0.0024582879, global = -1.2237319e-06, cumulative = 0.00028491521
ExecutionTime = 1.342316 s  ClockTime = 2 s

Time = 8s

smoothSolver:  Solving for Ux, Initial residual = 0.10714082, Final residual = 0.01036948, No Iterations 2
smoothSolver:  Solving for Uy, Initial residual = 0.12761203, Final residual = 0.0085330992, No Iterations 2
smoothSolver:  Solving for Uz, Initial residual = 0.24732397, Final residual = 0.0086249126, No Iterations 3
GAMG:  Solving for p, Initial residual = 0.16922859, Final residual = 0.00096131884, No Iterations 5
time step continuity errors : sum local = 0.0018041118, global = -4.7832307e-06, cumulative = 0.00028013198
ExecutionTime = 1.479948 s  ClockTime = 2 s

Time = 9s

smoothSolver:  Solving for Ux, Initial residual = 0.070218999, Final residual = 0.0058534201, No Iterations 2
smoothSolver:  Solving for Uy, Initial residual = 0.27995821, Final residual = 0.020707604, No Iterations 2
smoothSolver:  Solving for Uz, Initial residual = 0.06880437, Final residual = 0.0022913762, No Iterations 3
GAMG:  Solving for p, Initial residual = 0.21108968, Final residual = 0.00099833794, No Iterations 6
time step continuity errors : sum local = 0.00061225666, global = -1.5701375e-05, cumulative = 0.00026443061
ExecutionTime = 1.624926 s  ClockTime = 2 s

Time = 10s

smoothSolver:  Solving for Ux, Initial residual = 0.083110473, Final residual = 0.0069899766, No Iterations 2
smoothSolver:  Solving for Uy, Initial residual = 0.37889246, Final residual = 0.025469033, No Iterations 2
smoothSolver:  Solving for Uz, Initial residual = 0.092054983, Final residual = 0.0032268334, No Iterations 3
GAMG:  Solving for p, Initial residual = 0.24439539, Final residual = 0.0018693346, No Iterations 4
time step continuity errors : sum local = 0.0015885742, global = -2.3082275e-05, cumulative = 0.00024134833
ExecutionTime = 1.755048 s  ClockTime = 2 s

Time = 11s

smoothSolver:  Solving for Ux, Initial residual = 0.072986197, Final residual = 0.0066697185, No Iterations 2
smoothSolver:  Solving for Uy, Initial residual = 0.20718419, Final residual = 0.012783578, No Iterations 2
smoothSolver:  Solving for Uz, Initial residual = 0.12496167, Final residual = 0.0043874214, No Iterations 3
GAMG:  Solving for p, Initial residual = 0.18013101, Final residual = 0.0013146623, No Iterations 4
time step continuity errors : sum local = 0.0015248702, global = 8.5138333e-06, cumulative = 0.00024986217
ExecutionTime = 1.884391 s  ClockTime = 2 s

Time = 12s

smoothSolver:  Solving for Ux, Initial residual = 0.04557772, Final residual = 0.0045283637, No Iterations 2
smoothSolver:  Solving for Uy, Initial residual = 0.14659572, Final residual = 0.011521748, No Iterations 2
smoothSolver:  Solving for Uz, Initial residual = 0.079518184, Final residual = 0.0028021549, No Iterations 3
GAMG:  Solving for p, Initial residual = 0.13883015, Final residual = 0.0010691483, No Iterations 5
time step continuity errors : sum local = 0.00087895197, global = -1.0238434e-06, cumulative = 0.00024883832
ExecutionTime = 2.021565 s  ClockTime = 2 s

Time = 13s

smoothSolver:  Solving for Ux, Initial residual = 0.031232211, Final residual = 0.0026051087, No Iterations 2
smoothSolver:  Solving for Uy, Initial residual = 0.31224246, Final residual = 0.024745877, No Iterations 2
smoothSolver:  Solving for Uz, Initial residual = 0.016121655, Final residual = 0.001499277, No Iterations 2
GAMG:  Solving for p, Initial residual = 0.2948466, Final residual = 0.0028498176, No Iterations 5
time step continuity errors : sum local = 0.00065370638, global = -2.5074283e-06, cumulative = 0.0002463309
ExecutionTime = 2.15837 s  ClockTime = 2 s

Time = 14s

smoothSolver:  Solving for Ux, Initial residual = 0.037567853, Final residual = 0.0032432936, No Iterations 2
smoothSolver:  Solving for Uy, Initial residual = 0.30005546, Final residual = 0.021655571, No Iterations 2
smoothSolver:  Solving for Uz, Initial residual = 0.045227807, Final residual = 0.0015559966, No Iterations 3
GAMG:  Solving for p, Initial residual = 0.2462803, Final residual = 0.0014790487, No Iterations 4
time step continuity errors : sum local = 0.00064691238, global = 6.5763234e-06, cumulative = 0.00025290722
ExecutionTime = 2.288624 s  ClockTime = 3 s

Time = 15s

smoothSolver:  Solving for Ux, Initial residual = 0.033461416, Final residual = 0.0030791404, No Iterations 2
smoothSolver:  Solving for Uy, Initial residual = 0.15950472, Final residual = 0.010655751, No Iterations 2
smoothSolver:  Solving for Uz, Initial residual = 0.056839909, Final residual = 0.0019651043, No Iterations 3
GAMG:  Solving for p, Initial residual = 0.18685428, Final residual = 0.0016403031, No Iterations 4
time step continuity errors : sum local = 0.0008312229, global = -7.8017848e-06, cumulative = 0.00024510543
ExecutionTime = 2.41852 s  ClockTime = 3 s

Time = 16s

smoothSolver:  Solving for Ux, Initial residual = 0.022885738, Final residual = 0.0022360368, No Iterations 2
smoothSolver:  Solving for Uy, Initial residual = 0.14526561, Final residual = 0.012317359, No Iterations 2
smoothSolver:  Solving for Uz, Initial residual = 0.032445378, Final residual = 0.0011143231, No Iterations 3
GAMG:  Solving for p, Initial residual = 0.15180738, Final residual = 0.0013288671, No Iterations 5
time step continuity errors : sum local = 0.00040909735, global = 8.0123589e-07, cumulative = 0.00024590667
ExecutionTime = 2.554626 s  ClockTime = 3 s

Time = 17s

smoothSolver:  Solving for Ux, Initial residual = 0.017590547, Final residual = 0.0014622771, No Iterations 2
smoothSolver:  Solving for Uy, Initial residual = 0.25192348, Final residual = 0.020421441, No Iterations 2
smoothSolver:  Solving for Uz, Initial residual = 0.0089133731, Final residual = 0.00085231478, No Iterations 2
GAMG:  Solving for p, Initial residual = 0.30466027, Final residual = 0.0022257599, No Iterations 5
time step continuity errors : sum local = 0.00026594436, global = 1.5928252e-07, cumulative = 0.00024606595
ExecutionTime = 2.69034 s  ClockTime = 3 s

Time = 18s

smoothSolver:  Solving for Ux, Initial residual = 0.019632171, Final residual = 0.0017725078, No Iterations 2
smoothSolver:  Solving for Uy, Initial residual = 0.20327121, Final residual = 0.015066628, No Iterations 2
smoothSolver:  Solving for Uz, Initial residual = 0.025384855, Final residual = 0.00090132623, No Iterations 3
GAMG:  Solving for p, Initial residual = 0.17963251, Final residual = 0.00098634063, No Iterations 4
time step continuity errors : sum local = 0.00028139079, global = -1.2662615e-06, cumulative = 0.00024479969
ExecutionTime = 2.818696 s  ClockTime = 3 s

Time = 19s

smoothSolver:  Solving for Ux, Initial residual = 0.015194164, Final residual = 0.001470592, No Iterations 2
smoothSolver:  Solving for Uy, Initial residual = 0.1104532, Final residual = 0.0081051758, No Iterations 2
smoothSolver:  Solving for Uz, Initial residual = 0.025106005, Final residual = 0.0008927702, No Iterations 3
GAMG:  Solving for p, Initial residual = 0.13925589, Final residual = 0.00062189489, No Iterations 5
time step continuity errors : sum local = 0.00017877714, global = 6.6925067e-08, cumulative = 0.00024486662
ExecutionTime = 2.957303 s  ClockTime = 3 s

Time = 20s

smoothSolver:  Solving for Ux, Initial residual = 0.010967484, Final residual = 0.0010953909, No Iterations 2
smoothSolver:  Solving for Uy, Initial residual = 0.11966366, Final residual = 0.010599981, No Iterations 2
smoothSolver:  Solving for Uz, Initial residual = 0.012013135, Final residual = 0.00042398565, No Iterations 3
GAMG:  Solving for p, Initial residual = 0.10071947, Final residual = 0.00039577149, No Iterations 6
time step continuity errors : sum local = 7.1826006e-05, global = 2.0076517e-06, cumulative = 0.00024687427
ExecutionTime = 3.103403 s  ClockTime = 3 s

Time = 21s

smoothSolver:  Solving for Ux, Initial residual = 0.0093707833, Final residual = 0.00081758325, No Iterations 2
smoothSolver:  Solving for Uy, Initial residual = 0.15700199, Final residual = 0.013075624, No Iterations 2
smoothSolver:  Solving for Uz, Initial residual = 0.0056668086, Final residual = 0.00053700865, No Iterations 2
GAMG:  Solving for p, Initial residual = 0.27938174, Final residual = 0.0014716205, No Iterations 5
time step continuity errors : sum local = 0.00010492211, global = -2.1192314e-08, cumulative = 0.00024685308
ExecutionTime = 3.239556 s  ClockTime = 4 s

Time = 22s

smoothSolver:  Solving for Ux, Initial residual = 0.0086437784, Final residual = 0.00075961096, No Iterations 2
smoothSolver:  Solving for Uy, Initial residual = 0.11616747, Final residual = 0.0089749792, No Iterations 2
smoothSolver:  Solving for Uz, Initial residual = 0.011494453, Final residual = 0.00038551813, No Iterations 3
GAMG:  Solving for p, Initial residual = 0.18616165, Final residual = 0.001218082, No Iterations 4
time step continuity errors : sum local = 0.00016045278, global = -6.2588493e-07, cumulative = 0.00024622719
ExecutionTime = 3.369713 s  ClockTime = 4 s

Time = 23s

smoothSolver:  Solving for Ux, Initial residual = 0.0064098252, Final residual = 0.00059960414, No Iterations 2
smoothSolver:  Solving for Uy, Initial residual = 0.06680059, Final residual = 0.0053681303, No Iterations 2
smoothSolver:  Solving for Uz, Initial residual = 0.0099366244, Final residual = 0.00033238784, No Iterations 3
GAMG:  Solving for p, Initial residual = 0.14511352, Final residual = 0.00075519427, No Iterations 5
time step continuity errors : sum local = 9.0400724e-05, global = 1.0777166e-07, cumulative = 0.00024633496
ExecutionTime = 3.507403 s  ClockTime = 4 s

Time = 24s

smoothSolver:  Solving for Ux, Initial residual = 0.0052580159, Final residual = 0.00049129757, No Iterations 2
smoothSolver:  Solving for Uy, Initial residual = 0.079917794, Final residual = 0.00719467, No Iterations 2
smoothSolver:  Solving for Uz, Initial residual = 0.0041515889, Final residual = 0.00041174415, No Iterations 2
GAMG:  Solving for p, Initial residual = 0.12904476, Final residual = 0.0012392657, No Iterations 5
time step continuity errors : sum local = 7.9749898e-05, global = 2.5517758e-07, cumulative = 0.00024659014
ExecutionTime = 3.644059 s  ClockTime = 4 s

Time = 25s

smoothSolver:  Solving for Ux, Initial residual = 0.0054721769, Final residual = 0.00051146468, No Iterations 2
smoothSolver:  Solving for Uy, Initial residual = 0.087087189, Final residual = 0.0074278757, No Iterations 2
smoothSolver:  Solving for Uz, Initial residual = 0.0053978244, Final residual = 0.0001847016, No Iterations 3
GAMG:  Solving for p, Initial residual = 0.099827654, Final residual = 0.0009744167, No Iterations 4
time step continuity errors : sum local = 0.00010040628, global = -9.0129447e-07, cumulative = 0.00024568885
ExecutionTime = 3.774726 s  ClockTime = 4 s

Time = 26s

smoothSolver:  Solving for Ux, Initial residual = 0.0048818335, Final residual = 0.00047392763, No Iterations 2
smoothSolver:  Solving for Uy, Initial residual = 0.06068239, Final residual = 0.0050402348, No Iterations 2
smoothSolver:  Solving for Uz, Initial residual = 0.0067161669, Final residual = 0.00023845565, No Iterations 3
GAMG:  Solving for p, Initial residual = 0.087940348, Final residual = 0.00070513692, No Iterations 4
time step continuity errors : sum local = 8.7751649e-05, global = 2.601506e-07, cumulative = 0.000245949
ExecutionTime = 3.905187 s  ClockTime = 4 s

Time = 27s

smoothSolver:  Solving for Ux, Initial residual = 0.0040106527, Final residual = 0.00013036114, No Iterations 3
smoothSolver:  Solving for Uy, Initial residual = 0.041250651, Final residual = 0.0037921159, No Iterations 2
smoothSolver:  Solving for Uz, Initial residual = 0.0056491887, Final residual = 0.000198042, No Iterations 3
GAMG:  Solving for p, Initial residual = 0.061265345, Final residual = 0.00038473761, No Iterations 5
time step continuity errors : sum local = 4.4128158e-05, global = -1.7073632e-07, cumulative = 0.00024577826
ExecutionTime = 4.043574 s  ClockTime = 4 s

Time = 28s

smoothSolver:  Solving for Ux, Initial residual = 0.0038458567, Final residual = 0.0001206699, No Iterations 3
smoothSolver:  Solving for Uy, Initial residual = 0.048070354, Final residual = 0.0044980718, No Iterations 2
smoothSolver:  Solving for Uz, Initial residual = 0.0039506177, Final residual = 0.00013098059, No Iterations 3
GAMG:  Solving for p, Initial residual = 0.0483115, Final residual = 0.00039564738, No Iterations 5
time step continuity errors : sum local = 3.4886631e-05, global = -1.3952498e-07, cumulative = 0.00024563873
ExecutionTime = 4.183397 s  ClockTime = 5 s

Time = 29s

smoothSolver:  Solving for Ux, Initial residual = 0.0034818388, Final residual = 0.00033669728, No Iterations 2
smoothSolver:  Solving for Uy, Initial residual = 0.047142003, Final residual = 0.0042261535, No Iterations 2
smoothSolver:  Solving for Uz, Initial residual = 0.0031842858, Final residual = 0.00010000649, No Iterations 3
GAMG:  Solving for p, Initial residual = 0.086627494, Final residual = 0.00067094802, No Iterations 4
time step continuity errors : sum local = 4.438406e-05, global = 3.0770592e-07, cumulative = 0.00024594644
ExecutionTime = 4.312812 s  ClockTime = 5 s

Time = 30s

smoothSolver:  Solving for Ux, Initial residual = 0.0028712486, Final residual = 0.00027941444, No Iterations 2
smoothSolver:  Solving for Uy, Initial residual = 0.034283551, Final residual = 0.0031069039, No Iterations 2
smoothSolver:  Solving for Uz, Initial residual = 0.0030767503, Final residual = 9.6385788e-05, No Iterations 3
GAMG:  Solving for p, Initial residual = 0.091255677, Final residual = 0.00071091401, No Iterations 4
time step continuity errors : sum local = 4.2721682e-05, global = -2.4880257e-07, cumulative = 0.00024569764
ExecutionTime = 4.440957 s  ClockTime = 5 s

Time = 31s

smoothSolver:  Solving for Ux, Initial residual = 0.0025952542, Final residual = 8.0880425e-05, No Iterations 3
smoothSolver:  Solving for Uy, Initial residual = 0.028633197, Final residual = 0.0027976672, No Iterations 2
smoothSolver:  Solving for Uz, Initial residual = 0.0029687827, Final residual = 9.5139563e-05, No Iterations 3
GAMG:  Solving for p, Initial residual = 0.05430632, Final residual = 0.00030535349, No Iterations 5
time step continuity errors : sum local = 2.0016514e-05, global = 9.9349732e-08, cumulative = 0.00024579699
ExecutionTime = 4.580408 s  ClockTime = 5 s

Time = 32s

smoothSolver:  Solving for Ux, Initial residual = 0.0026950373, Final residual = 8.5134584e-05, No Iterations 3
smoothSolver:  Solving for Uy, Initial residual = 0.031373851, Final residual = 0.0030440654, No Iterations 2
smoothSolver:  Solving for Uz, Initial residual = 0.0032021588, Final residual = 0.00010618474, No Iterations 3
GAMG:  Solving for p, Initial residual = 0.03411536, Final residual = 0.00017883754, No Iterations 5
time step continuity errors : sum local = 1.3889924e-05, global = 4.6147907e-08, cumulative = 0.00024584314
ExecutionTime = 4.719993 s  ClockTime = 5 s

Time = 33s

smoothSolver:  Solving for Ux, Initial residual = 0.002646182, Final residual = 8.4974373e-05, No Iterations 3
smoothSolver:  Solving for Uy, Initial residual = 0.029097138, Final residual = 0.0027973945, No Iterations 2
smoothSolver:  Solving for Uz, Initial residual = 0.0034647856, Final residual = 0.00011760458, No Iterations 3
GAMG:  Solving for p, Initial residual = 0.034975039, Final residual = 0.00021621804, No Iterations 4
time step continuity errors : sum local = 1.8746692e-05, global = -2.3965772e-07, cumulative = 0.00024560348
ExecutionTime = 4.851444 s  ClockTime = 5 s

Time = 34s

smoothSolver:  Solving for Ux, Initial residual = 0.0024467786, Final residual = 8.0975084e-05, No Iterations 3
smoothSolver:  Solving for Uy, Initial residual = 0.023637111, Final residual = 0.0023560992, No Iterations 2
smoothSolver:  Solving for Uz, Initial residual = 0.0034286852, Final residual = 0.00011682338, No Iterations 3
GAMG:  Solving for p, Initial residual = 0.030334236, Final residual = 0.00025625044, No Iterations 4
time step continuity errors : sum local = 2.2617866e-05, global = 2.2536975e-07, cumulative = 0.00024582885
ExecutionTime = 4.981187 s  ClockTime = 5 s

Time = 35s

smoothSolver:  Solving for Ux, Initial residual = 0.00234547, Final residual = 7.8333458e-05, No Iterations 3
smoothSolver:  Solving for Uy, Initial residual = 0.021934099, Final residual = 0.00070245975, No Iterations 3
smoothSolver:  Solving for Uz, Initial residual = 0.0031638913, Final residual = 0.00010686017, No Iterations 3
GAMG:  Solving for p, Initial residual = 0.023558471, Final residual = 0.00011646794, No Iterations 5
time step continuity errors : sum local = 9.8128931e-06, global = -4.5096074e-08, cumulative = 0.00024578375
ExecutionTime = 5.124339 s  ClockTime = 5 s

Time = 36s

smoothSolver:  Solving for Ux, Initial residual = 0.002292638, Final residual = 7.5467827e-05, No Iterations 3
smoothSolver:  Solving for Uy, Initial residual = 0.022085739, Final residual = 0.00069604636, No Iterations 3
smoothSolver:  Solving for Uz, Initial residual = 0.0028825566, Final residual = 9.6086792e-05, No Iterations 3
GAMG:  Solving for p, Initial residual = 0.025104977, Final residual = 0.00020132299, No Iterations 4
time step continuity errors : sum local = 1.5811671e-05, global = 1.9124702e-07, cumulative = 0.000245975
ExecutionTime = 5.259469 s  ClockTime = 6 s

Time = 37s

smoothSolver:  Solving for Ux, Initial residual = 0.002180877, Final residual = 7.1509759e-05, No Iterations 3
smoothSolver:  Solving for Uy, Initial residual = 0.020476669, Final residual = 0.00064692416, No Iterations 3
smoothSolver:  Solving for Uz, Initial residual = 0.002725421, Final residual = 9.02714e-05, No Iterations 3
GAMG:  Solving for p, Initial residual = 0.028206674, Final residual = 0.00014203815, No Iterations 4
time step continuity errors : sum local = 1.0665972e-05, global = 1.3956699e-07, cumulative = 0.00024611457
ExecutionTime = 5.393652 s  ClockTime = 6 s

Time = 38s

smoothSolver:  Solving for Ux, Initial residual = 0.0020739079, Final residual = 6.863837e-05, No Iterations 3
smoothSolver:  Solving for Uy, Initial residual = 0.018675716, Final residual = 0.00060610972, No Iterations 3
smoothSolver:  Solving for Uz, Initial residual = 0.0026638428, Final residual = 8.8485056e-05, No Iterations 3
GAMG:  Solving for p, Initial residual = 0.025353666, Final residual = 0.00014568454, No Iterations 4
time step continuity errors : sum local = 1.0929685e-05, global = -1.0562596e-07, cumulative = 0.00024600894
ExecutionTime = 5.525377 s  ClockTime = 6 s

Time = 39s

smoothSolver:  Solving for Ux, Initial residual = 0.0020326645, Final residual = 6.7745172e-05, No Iterations 3
smoothSolver:  Solving for Uy, Initial residual = 0.018268078, Final residual = 0.00059960751, No Iterations 3
smoothSolver:  Solving for Uz, Initial residual = 0.0026541529, Final residual = 8.8887565e-05, No Iterations 3
GAMG:  Solving for p, Initial residual = 0.020927242, Final residual = 0.00013046761, No Iterations 4
time step continuity errors : sum local = 1.0064708e-05, global = -1.5631212e-07, cumulative = 0.00024585263
ExecutionTime = 5.660969 s  ClockTime = 6 s

Time = 40s

smoothSolver:  Solving for Ux, Initial residual = 0.0020072672, Final residual = 6.7241913e-05, No Iterations 3
smoothSolver:  Solving for Uy, Initial residual = 0.017976942, Final residual = 0.00058933478, No Iterations 3
smoothSolver:  Solving for Uz, Initial residual = 0.0026601352, Final residual = 8.9866353e-05, No Iterations 3
GAMG:  Solving for p, Initial residual = 0.019252832, Final residual = 9.0617871e-05, No Iterations 4
time step continuity errors : sum local = 7.2180398e-06, global = -6.7077574e-08, cumulative = 0.00024578555
ExecutionTime = 5.793247 s  ClockTime = 6 s

Time = 41s

smoothSolver:  Solving for Ux, Initial residual = 0.0019627397, Final residual = 6.6212725e-05, No Iterations 3
smoothSolver:  Solving for Uy, Initial residual = 0.017084403, Final residual = 0.00056401367, No Iterations 3
smoothSolver:  Solving for Uz, Initial residual = 0.0026387302, Final residual = 8.9586415e-05, No Iterations 3
GAMG:  Solving for p, Initial residual = 0.018602599, Final residual = 8.3757515e-05, No Iterations 4
time step continuity errors : sum local = 6.7859248e-06, global = 4.6311773e-08, cumulative = 0.00024583186
ExecutionTime = 5.924825 s  ClockTime = 6 s

Time = 42s

smoothSolver:  Solving for Ux, Initial residual = 0.0019187604, Final residual = 6.5056761e-05, No Iterations 3
smoothSolver:  Solving for Uy, Initial residual = 0.016250254, Final residual = 0.0005417105, No Iterations 3
smoothSolver:  Solving for Uz, Initial residual = 0.0025773473, Final residual = 8.7560265e-05, No Iterations 3
GAMG:  Solving for p, Initial residual = 0.017569984, Final residual = 9.4043821e-05, No Iterations 4
time step continuity errors : sum local = 7.6117011e-06, global = 3.6259407e-08, cumulative = 0.00024586812
ExecutionTime = 6.056373 s  ClockTime = 6 s

Time = 43s

smoothSolver:  Solving for Ux, Initial residual = 0.0018846305, Final residual = 6.3912793e-05, No Iterations 3
smoothSolver:  Solving for Uy, Initial residual = 0.015806672, Final residual = 0.0005278885, No Iterations 3
smoothSolver:  Solving for Uz, Initial residual = 0.002494114, Final residual = 8.4558546e-05, No Iterations 3
GAMG:  Solving for p, Initial residual = 0.017130576, Final residual = 8.8970383e-05, No Iterations 4
time step continuity errors : sum local = 7.1078633e-06, global = 3.8193393e-08, cumulative = 0.00024590631
ExecutionTime = 6.189126 s  ClockTime = 7 s

Time = 44s

smoothSolver:  Solving for Ux, Initial residual = 0.0018493095, Final residual = 6.263967e-05, No Iterations 3
smoothSolver:  Solving for Uy, Initial residual = 0.01541464, Final residual = 0.00051441419, No Iterations 3
smoothSolver:  Solving for Uz, Initial residual = 0.0024181439, Final residual = 8.1830548e-05, No Iterations 3
GAMG:  Solving for p, Initial residual = 0.017414314, Final residual = 7.4228259e-05, No Iterations 4
time step continuity errors : sum local = 5.8508034e-06, global = 2.1042856e-08, cumulative = 0.00024592736
ExecutionTime = 6.321278 s  ClockTime = 7 s

Time = 45s

smoothSolver:  Solving for Ux, Initial residual = 0.0018113681, Final residual = 6.1396546e-05, No Iterations 3
smoothSolver:  Solving for Uy, Initial residual = 0.014940128, Final residual = 0.00049997262, No Iterations 3
smoothSolver:  Solving for Uz, Initial residual = 0.0023612849, Final residual = 7.9915398e-05, No Iterations 3
GAMG:  Solving for p, Initial residual = 0.017280096, Final residual = 0.00010323074, No Iterations 3
time step continuity errors : sum local = 8.0904894e-06, global = 1.4228546e-07, cumulative = 0.00024606964
ExecutionTime = 6.446743 s  ClockTime = 7 s

Time = 46s

smoothSolver:  Solving for Ux, Initial residual = 0.001779006, Final residual = 6.0426852e-05, No Iterations 3
smoothSolver:  Solving for Uy, Initial residual = 0.014531289, Final residual = 0.00048802665, No Iterations 3
smoothSolver:  Solving for Uz, Initial residual = 0.0023203988, Final residual = 7.8700558e-05, No Iterations 3
GAMG:  Solving for p, Initial residual = 0.016538518, Final residual = 0.00013734481, No Iterations 3
time step continuity errors : sum local = 1.0797612e-05, global = -3.6451815e-08, cumulative = 0.00024603319
ExecutionTime = 6.57146 s  ClockTime = 7 s

Time = 47s

smoothSolver:  Solving for Ux, Initial residual = 0.0017520781, Final residual = 5.9628896e-05, No Iterations 3
smoothSolver:  Solving for Uy, Initial residual = 0.014196595, Final residual = 0.00047743289, No Iterations 3
smoothSolver:  Solving for Uz, Initial residual = 0.0022865615, Final residual = 7.7766028e-05, No Iterations 3
GAMG:  Solving for p, Initial residual = 0.015845972, Final residual = 0.0001389088, No Iterations 3
time step continuity errors : sum local = 1.0990324e-05, global = -3.1553533e-08, cumulative = 0.00024600164
ExecutionTime = 6.695957 s  ClockTime = 7 s

Time = 48s

smoothSolver:  Solving for Ux, Initial residual = 0.0017266645, Final residual = 5.8890831e-05, No Iterations 3
smoothSolver:  Solving for Uy, Initial residual = 0.013837747, Final residual = 0.00046583055, No Iterations 3
smoothSolver:  Solving for Uz, Initial residual = 0.0022543202, Final residual = 7.6869922e-05, No Iterations 3
GAMG:  Solving for p, Initial residual = 0.015345897, Final residual = 8.5967598e-05, No Iterations 3
time step continuity errors : sum local = 6.8460112e-06, global = 4.5195269e-08, cumulative = 0.00024604683
ExecutionTime = 6.820658 s  ClockTime = 7 s

Time = 49s

smoothSolver:  Solving for Ux, Initial residual = 0.0017015893, Final residual = 5.8151044e-05, No Iterations 3
smoothSolver:  Solving for Uy, Initial residual = 0.013458723, Final residual = 0.00045384233, No Iterations 3
smoothSolver:  Solving for Uz, Initial residual = 0.0022189223, Final residual = 7.5796161e-05, No Iterations 3
GAMG:  Solving for p, Initial residual = 0.014965081, Final residual = 0.00012490636, No Iterations 3
time step continuity errors : sum local = 9.9837245e-06, global = 1.5832832e-07, cumulative = 0.00024620516
ExecutionTime = 6.946276 s  ClockTime = 7 s

Time = 50s

smoothSolver:  Solving for Ux, Initial residual = 0.001678391, Final residual = 5.7439788e-05, No Iterations 3
smoothSolver:  Solving for Uy, Initial residual = 0.01311784, Final residual = 0.00044301391, No Iterations 3
smoothSolver:  Solving for Uz, Initial residual = 0.0021812312, Final residual = 7.4589322e-05, No Iterations 3
GAMG:  Solving for p, Initial residual = 0.014639077, Final residual = 6.2474864e-05, No Iterations 4
time step continuity errors : sum local = 5.0004486e-06, global = 3.2060468e-08, cumulative = 0.00024623722
ExecutionTime = 7.078203 s  ClockTime = 7 s

Time = 51s

smoothSolver:  Solving for Ux, Initial residual = 0.0016571603, Final residual = 5.6737089e-05, No Iterations 3
smoothSolver:  Solving for Uy, Initial residual = 0.012823689, Final residual = 0.0004336169, No Iterations 3
smoothSolver:  Solving for Uz, Initial residual = 0.0021393577, Final residual = 7.3162813e-05, No Iterations 3
GAMG:  Solving for p, Initial residual = 0.014455795, Final residual = 5.9756187e-05, No Iterations 4
time step continuity errors : sum local = 4.7712405e-06, global = 2.2451131e-08, cumulative = 0.00024625967
ExecutionTime = 7.212403 s  ClockTime = 8 s

Time = 52s

smoothSolver:  Solving for Ux, Initial residual = 0.0016361048, Final residual = 5.6026261e-05, No Iterations 3
smoothSolver:  Solving for Uy, Initial residual = 0.012550091, Final residual = 0.00042486748, No Iterations 3
smoothSolver:  Solving for Uz, Initial residual = 0.0020988906, Final residual = 7.1788832e-05, No Iterations 3
GAMG:  Solving for p, Initial residual = 0.014328161, Final residual = 0.00013508797, No Iterations 3
time step continuity errors : sum local = 1.0757334e-05, global = 9.1920829e-08, cumulative = 0.00024635159
ExecutionTime = 7.336715 s  ClockTime = 8 s

Time = 53s

smoothSolver:  Solving for Ux, Initial residual = 0.0016147964, Final residual = 5.533019e-05, No Iterations 3
smoothSolver:  Solving for Uy, Initial residual = 0.012278067, Final residual = 0.00041638885, No Iterations 3
smoothSolver:  Solving for Uz, Initial residual = 0.0020631858, Final residual = 7.0624798e-05, No Iterations 3
GAMG:  Solving for p, Initial residual = 0.014103945, Final residual = 0.00011205049, No Iterations 3
time step continuity errors : sum local = 8.9200045e-06, global = 8.9275375e-08, cumulative = 0.00024644087
ExecutionTime = 7.461194 s  ClockTime = 8 s

Time = 54s

smoothSolver:  Solving for Ux, Initial residual = 0.0015948182, Final residual = 5.4689999e-05, No Iterations 3
smoothSolver:  Solving for Uy, Initial residual = 0.012016012, Final residual = 0.00040826898, No Iterations 3
smoothSolver:  Solving for Uz, Initial residual = 0.002030838, Final residual = 6.9598767e-05, No Iterations 3
GAMG:  Solving for p, Initial residual = 0.013828142, Final residual = 8.8998185e-05, No Iterations 3
time step continuity errors : sum local = 7.0944015e-06, global = 1.1690353e-07, cumulative = 0.00024655777
ExecutionTime = 7.585384 s  ClockTime = 8 s

Time = 55s

smoothSolver:  Solving for Ux, Initial residual = 0.0015765278, Final residual = 5.4110823e-05, No Iterations 3
smoothSolver:  Solving for Uy, Initial residual = 0.011763428, Final residual = 0.000400357, No Iterations 3
smoothSolver:  Solving for Uz, Initial residual = 0.0020004471, Final residual = 6.8644227e-05, No Iterations 3
GAMG:  Solving for p, Initial residual = 0.013558313, Final residual = 9.4261827e-05, No Iterations 3
time step continuity errors : sum local = 7.529609e-06, global = 1.4472094e-07, cumulative = 0.00024670249
ExecutionTime = 7.712303 s  ClockTime = 8 s

Time = 56s

smoothSolver:  Solving for Ux, Initial residual = 0.0015597061, Final residual = 5.3574014e-05, No Iterations 3
smoothSolver:  Solving for Uy, Initial residual = 0.011521102, Final residual = 0.000392708, No Iterations 3
smoothSolver:  Solving for Uz, Initial residual = 0.0019709906, Final residual = 6.7710486e-05, No Iterations 3
GAMG:  Solving for p, Initial residual = 0.013322381, Final residual = 0.00011291134, No Iterations 3
time step continuity errors : sum local = 9.0373233e-06, global = 1.5470735e-07, cumulative = 0.0002468572
ExecutionTime = 7.836909 s  ClockTime = 8 s

Time = 57s

smoothSolver:  Solving for Ux, Initial residual = 0.0015439793, Final residual = 5.3065602e-05, No Iterations 3
smoothSolver:  Solving for Uy, Initial residual = 0.011292045, Final residual = 0.00038549373, No Iterations 3
smoothSolver:  Solving for Uz, Initial residual = 0.0019418727, Final residual = 6.6771055e-05, No Iterations 3
GAMG:  Solving for p, Initial residual = 0.013118901, Final residual = 0.00012753104, No Iterations 3
time step continuity errors : sum local = 1.0222175e-05, global = 1.390536e-07, cumulative = 0.00024699625
ExecutionTime = 7.960868 s  ClockTime = 8 s

Time = 58s

smoothSolver:  Solving for Ux, Initial residual = 0.0015290806, Final residual = 5.2571445e-05, No Iterations 3
smoothSolver:  Solving for Uy, Initial residual = 0.011078058, Final residual = 0.00037869128, No Iterations 3
smoothSolver:  Solving for Uz, Initial residual = 0.0019128625, Final residual = 6.5819127e-05, No Iterations 3
GAMG:  Solving for p, Initial residual = 0.012939049, Final residual = 5.6139985e-05, No Iterations 4
time step continuity errors : sum local = 4.5031729e-06, global = 5.2008502e-08, cumulative = 0.00024704826
ExecutionTime = 8.092961 s  ClockTime = 8 s

Time = 59s

smoothSolver:  Solving for Ux, Initial residual = 0.0015153815, Final residual = 5.21052e-05, No Iterations 3
smoothSolver:  Solving for Uy, Initial residual = 0.010878671, Final residual = 0.0003722991, No Iterations 3
smoothSolver:  Solving for Uz, Initial residual = 0.0018836583, Final residual = 6.4842734e-05, No Iterations 3
GAMG:  Solving for p, Initial residual = 0.012792637, Final residual = 0.00011633237, No Iterations 3
time step continuity errors : sum local = 9.3299022e-06, global = 1.0119714e-07, cumulative = 0.00024714946
ExecutionTime = 8.21778 s  ClockTime = 9 s

Time = 60s

smoothSolver:  Solving for Ux, Initial residual = 0.0015011804, Final residual = 5.1630919e-05, No Iterations 3
smoothSolver:  Solving for Uy, Initial residual = 0.010679639, Final residual = 0.00036590849, No Iterations 3
smoothSolver:  Solving for Uz, Initial residual = 0.0018561935, Final residual = 6.3946699e-05, No Iterations 3
GAMG:  Solving for p, Initial residual = 0.012598157, Final residual = 0.00010719043, No Iterations 3
time step continuity errors : sum local = 8.6032742e-06, global = 9.1454931e-08, cumulative = 0.00024724091
ExecutionTime = 8.342924 s  ClockTime = 9 s

Time = 61s

smoothSolver:  Solving for Ux, Initial residual = 0.0014878623, Final residual = 5.1187215e-05, No Iterations 3
smoothSolver:  Solving for Uy, Initial residual = 0.010487916, Final residual = 0.00035966888, No Iterations 3
smoothSolver:  Solving for Uz, Initial residual = 0.0018298002, Final residual = 6.3089996e-05, No Iterations 3
GAMG:  Solving for p, Initial residual = 0.012403003, Final residual = 0.00010297013, No Iterations 3
time step continuity errors : sum local = 8.2731685e-06, global = 9.157746e-08, cumulative = 0.00024733249
ExecutionTime = 8.468366 s  ClockTime = 9 s

Time = 62s

smoothSolver:  Solving for Ux, Initial residual = 0.0014758106, Final residual = 5.0782533e-05, No Iterations 3
smoothSolver:  Solving for Uy, Initial residual = 0.010304846, Final residual = 0.00035368235, No Iterations 3
smoothSolver:  Solving for Uz, Initial residual = 0.0018043446, Final residual = 6.2262613e-05, No Iterations 3
GAMG:  Solving for p, Initial residual = 0.012220853, Final residual = 0.00010496963, No Iterations 3
time step continuity errors : sum local = 8.4437961e-06, global = 9.8995448e-08, cumulative = 0.00024743149
ExecutionTime = 8.593394 s  ClockTime = 9 s

Time = 63s

smoothSolver:  Solving for Ux, Initial residual = 0.0014650944, Final residual = 5.042127e-05, No Iterations 3
smoothSolver:  Solving for Uy, Initial residual = 0.010131053, Final residual = 0.0003479708, No Iterations 3
smoothSolver:  Solving for Uz, Initial residual = 0.0017796499, Final residual = 6.1455598e-05, No Iterations 3
GAMG:  Solving for p, Initial residual = 0.012055103, Final residual = 0.00010914293, No Iterations 3
time step continuity errors : sum local = 8.7896942e-06, global = 1.0860097e-07, cumulative = 0.00024754009
ExecutionTime = 8.719995 s  ClockTime = 9 s

Time = 64s

smoothSolver:  Solving for Ux, Initial residual = 0.0014555356, Final residual = 5.0096842e-05, No Iterations 3
smoothSolver:  Solving for Uy, Initial residual = 0.0099658621, Final residual = 0.00034252022, No Iterations 3
smoothSolver:  Solving for Uz, Initial residual = 0.001755606, Final residual = 6.0664795e-05, No Iterations 3
GAMG:  Solving for p, Initial residual = 0.011903761, Final residual = 0.00011123119, No Iterations 3
time step continuity errors : sum local = 8.9672259e-06, global = 1.1512198e-07, cumulative = 0.00024765521
ExecutionTime = 8.845655 s  ClockTime = 9 s

Time = 65s

smoothSolver:  Solving for Ux, Initial residual = 0.0014467536, Final residual = 4.979722e-05, No Iterations 3
smoothSolver:  Solving for Uy, Initial residual = 0.0098071613, Final residual = 0.0003373023, No Iterations 3
smoothSolver:  Solving for Uz, Initial residual = 0.001732187, Final residual = 5.9890735e-05, No Iterations 3
GAMG:  Solving for p, Initial residual = 0.011764753, Final residual = 0.00011004437, No Iterations 3
time step continuity errors : sum local = 8.8798842e-06, global = 1.1717261e-07, cumulative = 0.00024777238
ExecutionTime = 8.971415 s  ClockTime = 9 s

Time = 66s

smoothSolver:  Solving for Ux, Initial residual = 0.0014384981, Final residual = 4.9513792e-05, No Iterations 3
smoothSolver:  Solving for Uy, Initial residual = 0.009654419, Final residual = 0.00033228549, No Iterations 3
smoothSolver:  Solving for Uz, Initial residual = 0.0017094006, Final residual = 5.9136141e-05, No Iterations 3
GAMG:  Solving for p, Initial residual = 0.011627854, Final residual = 0.00010650804, No Iterations 3
time step continuity errors : sum local = 8.6023125e-06, global = 1.1572087e-07, cumulative = 0.0002478881
ExecutionTime = 9.096368 s  ClockTime = 9 s

Time = 67s

smoothSolver:  Solving for Ux, Initial residual = 0.0014306661, Final residual = 4.9243008e-05, No Iterations 3
smoothSolver:  Solving for Uy, Initial residual = 0.0095072826, Final residual = 0.00032741593, No Iterations 3
smoothSolver:  Solving for Uz, Initial residual = 0.0016872514, Final residual = 5.8402589e-05, No Iterations 3
GAMG:  Solving for p, Initial residual = 0.011489165, Final residual = 0.00010235145, No Iterations 3
time step continuity errors : sum local = 8.2744181e-06, global = 1.1261931e-07, cumulative = 0.00024800072
ExecutionTime = 9.221611 s  ClockTime = 10 s

Time = 68s

smoothSolver:  Solving for Ux, Initial residual = 0.0014232934, Final residual = 4.8988412e-05, No Iterations 3
smoothSolver:  Solving for Uy, Initial residual = 0.0093650161, Final residual = 0.00032267176, No Iterations 3
smoothSolver:  Solving for Uz, Initial residual = 0.0016657224, Final residual = 5.7689009e-05, No Iterations 3
GAMG:  Solving for p, Initial residual = 0.011347964, Final residual = 9.9052532e-05, No Iterations 3
time step continuity errors : sum local = 8.0157904e-06, global = 1.0883607e-07, cumulative = 0.00024810956
ExecutionTime = 9.346891 s  ClockTime = 10 s

Time = 69s

smoothSolver:  Solving for Ux, Initial residual = 0.0014165098, Final residual = 4.8752594e-05, No Iterations 3
smoothSolver:  Solving for Uy, Initial residual = 0.0092286049, Final residual = 0.00031806806, No Iterations 3
smoothSolver:  Solving for Uz, Initial residual = 0.0016447627, Final residual = 5.6993768e-05, No Iterations 3
GAMG:  Solving for p, Initial residual = 0.011213484, Final residual = 9.7510089e-05, No Iterations 3
time step continuity errors : sum local = 7.8993277e-06, global = 1.056323e-07, cumulative = 0.00024821519
ExecutionTime = 9.471931 s  ClockTime = 10 s

Time = 70s

smoothSolver:  Solving for Ux, Initial residual = 0.0014103719, Final residual = 4.8537775e-05, No Iterations 3
smoothSolver:  Solving for Uy, Initial residual = 0.0090969861, Final residual = 0.00031359716, No Iterations 3
smoothSolver:  Solving for Uz, Initial residual = 0.0016243308, Final residual = 5.6314858e-05, No Iterations 3
GAMG:  Solving for p, Initial residual = 0.01108901, Final residual = 9.7403678e-05, No Iterations 3
time step continuity errors : sum local = 7.8991852e-06, global = 1.0425244e-07, cumulative = 0.00024831944
ExecutionTime = 9.59626 s  ClockTime = 10 s

Time = 71s

smoothSolver:  Solving for Ux, Initial residual = 0.0014047999, Final residual = 4.8341197e-05, No Iterations 3
smoothSolver:  Solving for Uy, Initial residual = 0.0089703258, Final residual = 0.00030927913, No Iterations 3
smoothSolver:  Solving for Uz, Initial residual = 0.0016044256, Final residual = 5.5651715e-05, No Iterations 3
GAMG:  Solving for p, Initial residual = 0.010970386, Final residual = 9.7719018e-05, No Iterations 3
time step continuity errors : sum local = 7.9331461e-06, global = 1.0496705e-07, cumulative = 0.00024842441
ExecutionTime = 9.720565 s  ClockTime = 10 s

Time = 72s

smoothSolver:  Solving for Ux, Initial residual = 0.0013996839, Final residual = 4.815958e-05, No Iterations 3
smoothSolver:  Solving for Uy, Initial residual = 0.0088485755, Final residual = 0.0003050795, No Iterations 3
smoothSolver:  Solving for Uz, Initial residual = 0.0015850059, Final residual = 5.5004265e-05, No Iterations 3
GAMG:  Solving for p, Initial residual = 0.010855623, Final residual = 9.7544818e-05, No Iterations 3
time step continuity errors : sum local = 7.9271561e-06, global = 1.0701483e-07, cumulative = 0.00024853143
ExecutionTime = 9.844133 s  ClockTime = 10 s

Time = 73s

smoothSolver:  Solving for Ux, Initial residual = 0.0013948823, Final residual = 4.7985681e-05, No Iterations 3
smoothSolver:  Solving for Uy, Initial residual = 0.0087300367, Final residual = 0.00030100096, No Iterations 3
smoothSolver:  Solving for Uz, Initial residual = 0.0015660672, Final residual = 5.4372566e-05, No Iterations 3
GAMG:  Solving for p, Initial residual = 0.010751187, Final residual = 9.654027e-05, No Iterations 3
time step continuity errors : sum local = 7.8534519e-06, global = 1.0927606e-07, cumulative = 0.0002486407
ExecutionTime = 9.96768 s  ClockTime = 10 s

Time = 74s

smoothSolver:  Solving for Ux, Initial residual = 0.0013903248, Final residual = 4.7819684e-05, No Iterations 3
smoothSolver:  Solving for Uy, Initial residual = 0.0086142283, Final residual = 0.00029701138, No Iterations 3
smoothSolver:  Solving for Uz, Initial residual = 0.0015476148, Final residual = 5.3757044e-05, No Iterations 3
GAMG:  Solving for p, Initial residual = 0.010648187, Final residual = 9.4925444e-05, No Iterations 3
time step continuity errors : sum local = 7.729887e-06, global = 1.1119645e-07, cumulative = 0.0002487519
ExecutionTime = 10.092803 s  ClockTime = 10 s

Time = 75s

smoothSolver:  Solving for Ux, Initial residual = 0.0013859713, Final residual = 4.7660831e-05, No Iterations 3
smoothSolver:  Solving for Uy, Initial residual = 0.0085012188, Final residual = 0.00029310546, No Iterations 3
smoothSolver:  Solving for Uz, Initial residual = 0.0015296239, Final residual = 5.315626e-05, No Iterations 3
GAMG:  Solving for p, Initial residual = 0.010542367, Final residual = 9.3202824e-05, No Iterations 3
time step continuity errors : sum local = 7.597409e-06, global = 1.1223126e-07, cumulative = 0.00024886413
ExecutionTime = 10.218606 s  ClockTime = 11 s

Time = 76s

smoothSolver:  Solving for Ux, Initial residual = 0.00138188, Final residual = 4.7511524e-05, No Iterations 3
smoothSolver:  Solving for Uy, Initial residual = 0.0083912861, Final residual = 0.00028930039, No Iterations 3
smoothSolver:  Solving for Uz, Initial residual = 0.0015120682, Final residual = 5.2570063e-05, No Iterations 3
GAMG:  Solving for p, Initial residual = 0.010434356, Final residual = 9.1830281e-05, No Iterations 3
time step continuity errors : sum local = 7.493364e-06, global = 1.1209594e-07, cumulative = 0.00024897623
ExecutionTime = 10.342925 s  ClockTime = 11 s

Time = 77s

smoothSolver:  Solving for Ux, Initial residual = 0.0013780856, Final residual = 4.7371775e-05, No Iterations 3
smoothSolver:  Solving for Uy, Initial residual = 0.0082845107, Final residual = 0.00028560853, No Iterations 3
smoothSolver:  Solving for Uz, Initial residual = 0.0014949348, Final residual = 5.1997067e-05, No Iterations 3
GAMG:  Solving for p, Initial residual = 0.010328957, Final residual = 9.0942408e-05, No Iterations 3
time step continuity errors : sum local = 7.4287654e-06, global = 1.1112104e-07, cumulative = 0.00024908735
ExecutionTime = 10.467975 s  ClockTime = 11 s

Time = 78s

smoothSolver:  Solving for Ux, Initial residual = 0.0013746329, Final residual = 4.7241011e-05, No Iterations 3
smoothSolver:  Solving for Uy, Initial residual = 0.0081810655, Final residual = 0.00028202896, No Iterations 3
smoothSolver:  Solving for Uz, Initial residual = 0.0014781962, Final residual = 5.1436452e-05, No Iterations 3
GAMG:  Solving for p, Initial residual = 0.01022705, Final residual = 9.0396527e-05, No Iterations 3
time step continuity errors : sum local = 7.391951e-06, global = 1.0993563e-07, cumulative = 0.00024919728
ExecutionTime = 10.591837 s  ClockTime = 11 s

Time = 79s

smoothSolver:  Solving for Ux, Initial residual = 0.0013714653, Final residual = 4.7118249e-05, No Iterations 3
smoothSolver:  Solving for Uy, Initial residual = 0.0080806114, Final residual = 0.00027853927, No Iterations 3
smoothSolver:  Solving for Uz, Initial residual = 0.0014618455, Final residual = 5.0889274e-05, No Iterations 3
GAMG:  Solving for p, Initial residual = 0.010132057, Final residual = 8.9961016e-05, No Iterations 3
time step continuity errors : sum local = 7.364052e-06, global = 1.090969e-07, cumulative = 0.00024930638
ExecutionTime = 10.715802 s  ClockTime = 11 s

Time = 80s

smoothSolver:  Solving for Ux, Initial residual = 0.0013685186, Final residual = 4.7003653e-05, No Iterations 3
smoothSolver:  Solving for Uy, Initial residual = 0.007982679, Final residual = 0.00027515023, No Iterations 3
smoothSolver:  Solving for Uz, Initial residual = 0.0014458772, Final residual = 5.0354543e-05, No Iterations 3
GAMG:  Solving for p, Initial residual = 0.010044221, Final residual = 8.9407324e-05, No Iterations 3
time step continuity errors : sum local = 7.3263531e-06, global = 1.0888548e-07, cumulative = 0.00024941526
ExecutionTime = 10.840535 s  ClockTime = 11 s

Time = 81s

smoothSolver:  Solving for Ux, Initial residual = 0.0013657538, Final residual = 4.6896395e-05, No Iterations 3
smoothSolver:  Solving for Uy, Initial residual = 0.0078869015, Final residual = 0.00027186104, No Iterations 3
smoothSolver:  Solving for Uz, Initial residual = 0.0014302823, Final residual = 4.9832688e-05, No Iterations 3
GAMG:  Solving for p, Initial residual = 0.0099568551, Final residual = 8.8668648e-05, No Iterations 3
time step continuity errors : sum local = 7.2733919e-06, global = 1.0923625e-07, cumulative = 0.0002495245
ExecutionTime = 10.965424 s  ClockTime = 11 s

Time = 82s

smoothSolver:  Solving for Ux, Initial residual = 0.0013631484, Final residual = 4.6794169e-05, No Iterations 3
smoothSolver:  Solving for Uy, Initial residual = 0.0077930839, Final residual = 0.00026862887, No Iterations 3
smoothSolver:  Solving for Uz, Initial residual = 0.0014150676, Final residual = 4.9322625e-05, No Iterations 3
GAMG:  Solving for p, Initial residual = 0.009871574, Final residual = 8.781371e-05, No Iterations 3
time step continuity errors : sum local = 7.2107881e-06, global = 1.0991271e-07, cumulative = 0.00024963441
ExecutionTime = 11.090939 s  ClockTime = 11 s

Time = 83s

smoothSolver:  Solving for Ux, Initial residual = 0.0013607187, Final residual = 4.669647e-05, No Iterations 3
smoothSolver:  Solving for Uy, Initial residual = 0.0077010492, Final residual = 0.00026544556, No Iterations 3
smoothSolver:  Solving for Uz, Initial residual = 0.0014002207, Final residual = 4.8823609e-05, No Iterations 3
GAMG:  Solving for p, Initial residual = 0.0097868706, Final residual = 8.6988015e-05, No Iterations 3
time step continuity errors : sum local = 7.1504742e-06, global = 1.1056478e-07, cumulative = 0.00024974498
ExecutionTime = 11.216575 s  ClockTime = 12 s

Time = 84s

smoothSolver:  Solving for Ux, Initial residual = 0.0013584227, Final residual = 4.6604312e-05, No Iterations 3
smoothSolver:  Solving for Uy, Initial residual = 0.0076101185, Final residual = 0.00026229636, No Iterations 3
smoothSolver:  Solving for Uz, Initial residual = 0.0013857142, Final residual = 4.8334913e-05, No Iterations 3
GAMG:  Solving for p, Initial residual = 0.0097029966, Final residual = 8.6231985e-05, No Iterations 3
time step continuity errors : sum local = 7.0957665e-06, global = 1.107572e-07, cumulative = 0.00024985574
ExecutionTime = 11.341027 s  ClockTime = 12 s

Time = 85s

smoothSolver:  Solving for Ux, Initial residual = 0.0013562241, Final residual = 4.6518074e-05, No Iterations 3
smoothSolver:  Solving for Uy, Initial residual = 0.0075200887, Final residual = 0.00025917005, No Iterations 3
smoothSolver:  Solving for Uz, Initial residual = 0.0013715137, Final residual = 4.7856011e-05, No Iterations 3
GAMG:  Solving for p, Initial residual = 0.0096181868, Final residual = 8.5553273e-05, No Iterations 3
time step continuity errors : sum local = 7.0472728e-06, global = 1.1059057e-07, cumulative = 0.00024996633
ExecutionTime = 11.466093 s  ClockTime = 12 s

Time = 86s

smoothSolver:  Solving for Ux, Initial residual = 0.001354136, Final residual = 4.6435836e-05, No Iterations 3
smoothSolver:  Solving for Uy, Initial residual = 0.0074309876, Final residual = 0.00025607428, No Iterations 3
smoothSolver:  Solving for Uz, Initial residual = 0.0013576159, Final residual = 4.7386109e-05, No Iterations 3
GAMG:  Solving for p, Initial residual = 0.0095352559, Final residual = 8.4994953e-05, No Iterations 3
time step continuity errors : sum local = 7.0085643e-06, global = 1.1011271e-07, cumulative = 0.00025007644
ExecutionTime = 11.5907 s  ClockTime = 12 s

Time = 87s

smoothSolver:  Solving for Ux, Initial residual = 0.0013521644, Final residual = 4.6358223e-05, No Iterations 3
smoothSolver:  Solving for Uy, Initial residual = 0.0073429003, Final residual = 0.0002530225, No Iterations 3
smoothSolver:  Solving for Uz, Initial residual = 0.0013440203, Final residual = 4.6925698e-05, No Iterations 3
GAMG:  Solving for p, Initial residual = 0.0094576513, Final residual = 8.4483921e-05, No Iterations 3
time step continuity errors : sum local = 6.9735987e-06, global = 1.0980121e-07, cumulative = 0.00025018624
ExecutionTime = 11.71647 s  ClockTime = 12 s

Time = 88s

smoothSolver:  Solving for Ux, Initial residual = 0.0013502977, Final residual = 4.6285343e-05, No Iterations 3
smoothSolver:  Solving for Uy, Initial residual = 0.0072567542, Final residual = 0.00025003948, No Iterations 3
smoothSolver:  Solving for Uz, Initial residual = 0.0013307222, Final residual = 4.6474777e-05, No Iterations 3
GAMG:  Solving for p, Initial residual = 0.0093810357, Final residual = 8.4073554e-05, No Iterations 3
time step continuity errors : sum local = 6.9468132e-06, global = 1.1024284e-07, cumulative = 0.00025029648
ExecutionTime = 11.842015 s  ClockTime = 12 s

Time = 89s

smoothSolver:  Solving for Ux, Initial residual = 0.0013485058, Final residual = 4.6215872e-05, No Iterations 3
smoothSolver:  Solving for Uy, Initial residual = 0.0071732469, Final residual = 0.00024712785, No Iterations 3
smoothSolver:  Solving for Uz, Initial residual = 0.001317703, Final residual = 4.6033325e-05, No Iterations 3
GAMG:  Solving for p, Initial residual = 0.0093080777, Final residual = 8.3483702e-05, No Iterations 3
time step continuity errors : sum local = 6.9051013e-06, global = 1.1054174e-07, cumulative = 0.00025040702
ExecutionTime = 11.966544 s  ClockTime = 12 s

Time = 90s

smoothSolver:  Solving for Ux, Initial residual = 0.0013468044, Final residual = 4.6150093e-05, No Iterations 3
smoothSolver:  Solving for Uy, Initial residual = 0.0070917352, Final residual = 0.00024428362, No Iterations 3
smoothSolver:  Solving for Uz, Initial residual = 0.0013049532, Final residual = 4.5600635e-05, No Iterations 3
GAMG:  Solving for p, Initial residual = 0.009235479, Final residual = 8.2842909e-05, No Iterations 3
time step continuity errors : sum local = 6.8590581e-06, global = 1.1094389e-07, cumulative = 0.00025051797
ExecutionTime = 12.091722 s  ClockTime = 13 s

Time = 91s

smoothSolver:  Solving for Ux, Initial residual = 0.0013452025, Final residual = 4.6088505e-05, No Iterations 3
smoothSolver:  Solving for Uy, Initial residual = 0.007012235, Final residual = 0.00024149416, No Iterations 3
smoothSolver:  Solving for Uz, Initial residual = 0.0012924776, Final residual = 4.5176526e-05, No Iterations 3
GAMG:  Solving for p, Initial residual = 0.0091664304, Final residual = 8.2143376e-05, No Iterations 3
time step continuity errors : sum local = 6.808048e-06, global = 1.1116746e-07, cumulative = 0.00025062914
ExecutionTime = 12.2179 s  ClockTime = 13 s

Time = 92s

smoothSolver:  Solving for Ux, Initial residual = 0.001343678, Final residual = 4.603121e-05, No Iterations 3
smoothSolver:  Solving for Uy, Initial residual = 0.0069336356, Final residual = 0.00023876745, No Iterations 3
smoothSolver:  Solving for Uz, Initial residual = 0.001280262, Final residual = 4.4761975e-05, No Iterations 3
GAMG:  Solving for p, Initial residual = 0.0090992506, Final residual = 8.1336186e-05, No Iterations 3
time step continuity errors : sum local = 6.7480051e-06, global = 1.1092519e-07, cumulative = 0.00025074006
ExecutionTime = 12.343049 s  ClockTime = 13 s

Time = 93s

smoothSolver:  Solving for Ux, Initial residual = 0.0013422287, Final residual = 4.5976512e-05, No Iterations 3
smoothSolver:  Solving for Uy, Initial residual = 0.0068558848, Final residual = 0.00023609383, No Iterations 3
smoothSolver:  Solving for Uz, Initial residual = 0.0012682884, Final residual = 4.4356912e-05, No Iterations 3
GAMG:  Solving for p, Initial residual = 0.0090286621, Final residual = 8.0419222e-05, No Iterations 3
time step continuity errors : sum local = 6.6787328e-06, global = 1.1003321e-07, cumulative = 0.00025085009
ExecutionTime = 12.467238 s  ClockTime = 13 s

Time = 94s

smoothSolver:  Solving for Ux, Initial residual = 0.0013408134, Final residual = 4.5924224e-05, No Iterations 3
smoothSolver:  Solving for Uy, Initial residual = 0.006778519, Final residual = 0.00023344297, No Iterations 3
smoothSolver:  Solving for Uz, Initial residual = 0.0012565467, Final residual = 4.3960213e-05, No Iterations 3
GAMG:  Solving for p, Initial residual = 0.008958108, Final residual = 7.9497711e-05, No Iterations 3
time step continuity errors : sum local = 6.6089635e-06, global = 1.0897801e-07, cumulative = 0.00025095907
ExecutionTime = 12.592757 s  ClockTime = 13 s

Time = 95s

smoothSolver:  Solving for Ux, Initial residual = 0.0013394384, Final residual = 4.5874259e-05, No Iterations 3
smoothSolver:  Solving for Uy, Initial residual = 0.0067016445, Final residual = 0.00023082165, No Iterations 3
smoothSolver:  Solving for Uz, Initial residual = 0.001245026, Final residual = 4.357148e-05, No Iterations 3
GAMG:  Solving for p, Initial residual = 0.0088905535, Final residual = 7.8702413e-05, No Iterations 3
time step continuity errors : sum local = 6.5495561e-06, global = 1.0842313e-07, cumulative = 0.0002510675
ExecutionTime = 12.717586 s  ClockTime = 13 s

Time = 96s

smoothSolver:  Solving for Ux, Initial residual = 0.0013381079, Final residual = 4.5827764e-05, No Iterations 3
smoothSolver:  Solving for Uy, Initial residual = 0.0066253532, Final residual = 0.00022822804, No Iterations 3
smoothSolver:  Solving for Uz, Initial residual = 0.0012337081, Final residual = 4.3189822e-05, No Iterations 3
GAMG:  Solving for p, Initial residual = 0.0088229471, Final residual = 7.8079628e-05, No Iterations 3
time step continuity errors : sum local = 6.5043834e-06, global = 1.0896604e-07, cumulative = 0.00025117646
ExecutionTime = 12.842242 s  ClockTime = 13 s

Time = 97s

smoothSolver:  Solving for Ux, Initial residual = 0.0013368226, Final residual = 4.5784494e-05, No Iterations 3
smoothSolver:  Solving for Uy, Initial residual = 0.0065499317, Final residual = 0.00022567433, No Iterations 3
smoothSolver:  Solving for Uz, Initial residual = 0.0012225921, Final residual = 4.2815476e-05, No Iterations 3
GAMG:  Solving for p, Initial residual = 0.0087578574, Final residual = 7.760694e-05, No Iterations 3
time step continuity errors : sum local = 6.4716611e-06, global = 1.1045048e-07, cumulative = 0.00025128691
ExecutionTime = 12.967284 s  ClockTime = 13 s

Time = 98s

smoothSolver:  Solving for Ux, Initial residual = 0.0013355809, Final residual = 4.5744391e-05, No Iterations 3
smoothSolver:  Solving for Uy, Initial residual = 0.0064758606, Final residual = 0.00022316025, No Iterations 3
smoothSolver:  Solving for Uz, Initial residual = 0.0012116722, Final residual = 4.2448874e-05, No Iterations 3
GAMG:  Solving for p, Initial residual = 0.0086927389, Final residual = 7.7362504e-05, No Iterations 3
time step continuity errors : sum local = 6.4579232e-06, global = 1.0863992e-07, cumulative = 0.00025139555
ExecutionTime = 13.093415 s  ClockTime = 14 s

Time = 99s

smoothSolver:  Solving for Ux, Initial residual = 0.0013343763, Final residual = 4.5709787e-05, No Iterations 3
smoothSolver:  Solving for Uy, Initial residual = 0.0064031609, Final residual = 0.00022070728, No Iterations 3
smoothSolver:  Solving for Uz, Initial residual = 0.0012009565, Final residual = 4.2090015e-05, No Iterations 3
GAMG:  Solving for p, Initial residual = 0.0086286125, Final residual = 7.7059828e-05, No Iterations 3
time step continuity errors : sum local = 6.4392083e-06, global = 1.0712831e-07, cumulative = 0.00025150268
ExecutionTime = 13.21968 s  ClockTime = 14 s

Time = 100s

smoothSolver:  Solving for Ux, Initial residual = 0.0013331915, Final residual = 4.5678787e-05, No Iterations 3
smoothSolver:  Solving for Uy, Initial residual = 0.0063317126, Final residual = 0.00021830395, No Iterations 3
smoothSolver:  Solving for Uz, Initial residual = 0.0011904308, Final residual = 4.1737335e-05, No Iterations 3
GAMG:  Solving for p, Initial residual = 0.0085682309, Final residual = 7.6567051e-05, No Iterations 3
time step continuity errors : sum local = 6.4045344e-06, global = 1.055482e-07, cumulative = 0.00025160823
ExecutionTime = 13.344322 s  ClockTime = 14 s

Time = 101s

smoothSolver:  Solving for Ux, Initial residual = 0.0013320239, Final residual = 4.5650615e-05, No Iterations 3
smoothSolver:  Solving for Uy, Initial residual = 0.0062616202, Final residual = 0.00021593078, No Iterations 3
smoothSolver:  Solving for Uz, Initial residual = 0.0011800785, Final residual = 4.1390439e-05, No Iterations 3
GAMG:  Solving for p, Initial residual = 0.00850743, Final residual = 7.5868214e-05, No Iterations 3
time step continuity errors : sum local = 6.3525118e-06, global = 1.0367812e-07, cumulative = 0.00025171191
ExecutionTime = 13.468887 s  ClockTime = 14 s

Time = 102s

smoothSolver:  Solving for Ux, Initial residual = 0.0013308794, Final residual = 4.5625204e-05, No Iterations 3
smoothSolver:  Solving for Uy, Initial residual = 0.0061926984, Final residual = 0.00021359037, No Iterations 3
smoothSolver:  Solving for Uz, Initial residual = 0.0011699048, Final residual = 4.1049187e-05, No Iterations 3
GAMG:  Solving for p, Initial residual = 0.0084473465, Final residual = 7.5031964e-05, No Iterations 3
time step continuity errors : sum local = 6.2888344e-06, global = 1.0161863e-07, cumulative = 0.00025181353
ExecutionTime = 13.594377 s  ClockTime = 14 s

Time = 103s

smoothSolver:  Solving for Ux, Initial residual = 0.0013297359, Final residual = 4.5602166e-05, No Iterations 3
smoothSolver:  Solving for Uy, Initial residual = 0.0061247243, Final residual = 0.00021126786, No Iterations 3
smoothSolver:  Solving for Uz, Initial residual = 0.0011599037, Final residual = 4.0713917e-05, No Iterations 3
GAMG:  Solving for p, Initial residual = 0.0083872913, Final residual = 7.4091451e-05, No Iterations 3
time step continuity errors : sum local = 6.2162729e-06, global = 9.9459458e-08, cumulative = 0.00025191298
ExecutionTime = 13.719903 s  ClockTime = 14 s

Time = 104s

smoothSolver:  Solving for Ux, Initial residual = 0.0013285944, Final residual = 4.5579396e-05, No Iterations 3
smoothSolver:  Solving for Uy, Initial residual = 0.0060578567, Final residual = 0.00020896627, No Iterations 3
smoothSolver:  Solving for Uz, Initial residual = 0.0011500748, Final residual = 4.038459e-05, No Iterations 3
GAMG:  Solving for p, Initial residual = 0.0083296356, Final residual = 7.3116541e-05, No Iterations 3
time step continuity errors : sum local = 6.1406864e-06, global = 9.7451809e-08, cumulative = 0.00025201044
ExecutionTime = 13.844532 s  ClockTime = 14 s

Time = 105s

smoothSolver:  Solving for Ux, Initial residual = 0.0013274448, Final residual = 4.5557109e-05, No Iterations 3
smoothSolver:  Solving for Uy, Initial residual = 0.0059916942, Final residual = 0.00020669559, No Iterations 3
smoothSolver:  Solving for Uz, Initial residual = 0.0011404154, Final residual = 4.0061431e-05, No Iterations 3
GAMG:  Solving for p, Initial residual = 0.0082753842, Final residual = 7.2240156e-05, No Iterations 3
time step continuity errors : sum local = 6.0732446e-06, global = 9.5652815e-08, cumulative = 0.00025210609
ExecutionTime = 13.96865 s  ClockTime = 14 s

Time = 106s

smoothSolver:  Solving for Ux, Initial residual = 0.001326295, Final residual = 4.5535679e-05, No Iterations 3
smoothSolver:  Solving for Uy, Initial residual = 0.005926612, Final residual = 0.00020446358, No Iterations 3
smoothSolver:  Solving for Uz, Initial residual = 0.001130926, Final residual = 3.9743976e-05, No Iterations 3
GAMG:  Solving for p, Initial residual = 0.0082224506, Final residual = 7.151037e-05, No Iterations 3
time step continuity errors : sum local = 6.0180028e-06, global = 9.4030623e-08, cumulative = 0.00025220012
ExecutionTime = 14.092408 s  ClockTime = 15 s

Time = 107s

smoothSolver:  Solving for Ux, Initial residual = 0.0013251386, Final residual = 4.5513925e-05, No Iterations 3
smoothSolver:  Solving for Uy, Initial residual = 0.0058627993, Final residual = 0.00020227192, No Iterations 3
smoothSolver:  Solving for Uz, Initial residual = 0.0011215812, Final residual = 3.9431704e-05, No Iterations 3
GAMG:  Solving for p, Initial residual = 0.0081704157, Final residual = 7.0866512e-05, No Iterations 3
time step continuity errors : sum local = 5.9698916e-06, global = 9.2587775e-08, cumulative = 0.00025229271
ExecutionTime = 14.216667 s  ClockTime = 15 s

Time = 108s

smoothSolver:  Solving for Ux, Initial residual = 0.0013239707, Final residual = 4.5490831e-05, No Iterations 3
smoothSolver:  Solving for Uy, Initial residual = 0.0057998936, Final residual = 0.00020010951, No Iterations 3
smoothSolver:  Solving for Uz, Initial residual = 0.0011123849, Final residual = 3.9124457e-05, No Iterations 3
GAMG:  Solving for p, Initial residual = 0.0081164693, Final residual = 7.0269306e-05, No Iterations 3
time step continuity errors : sum local = 5.9256061e-06, global = 9.1299203e-08, cumulative = 0.00025238401
ExecutionTime = 14.342216 s  ClockTime = 15 s

Time = 109s

smoothSolver:  Solving for Ux, Initial residual = 0.0013228133, Final residual = 4.546634e-05, No Iterations 3
smoothSolver:  Solving for Uy, Initial residual = 0.0057376656, Final residual = 0.00019796432, No Iterations 3
smoothSolver:  Solving for Uz, Initial residual = 0.0011033319, Final residual = 3.8821727e-05, No Iterations 3
GAMG:  Solving for p, Initial residual = 0.0080650822, Final residual = 6.9737043e-05, No Iterations 3
time step continuity errors : sum local = 5.8866489e-06, global = 9.0047623e-08, cumulative = 0.00025247405
ExecutionTime = 14.466965 s  ClockTime = 15 s

Time = 110s

smoothSolver:  Solving for Ux, Initial residual = 0.0013216269, Final residual = 4.5438182e-05, No Iterations 3
smoothSolver:  Solving for Uy, Initial residual = 0.0056757442, Final residual = 0.00019582429, No Iterations 3
smoothSolver:  Solving for Uz, Initial residual = 0.0010944016, Final residual = 3.852374e-05, No Iterations 3
GAMG:  Solving for p, Initial residual = 0.0080205573, Final residual = 6.9277945e-05, No Iterations 3
time step continuity errors : sum local = 5.8537065e-06, global = 8.8645401e-08, cumulative = 0.0002525627
ExecutionTime = 14.59129 s  ClockTime = 15 s

Time = 111s

smoothSolver:  Solving for Ux, Initial residual = 0.0013203551, Final residual = 4.5406904e-05, No Iterations 3
smoothSolver:  Solving for Uy, Initial residual = 0.0056141962, Final residual = 0.00019369587, No Iterations 3
smoothSolver:  Solving for Uz, Initial residual = 0.0010856024, Final residual = 3.8230486e-05, No Iterations 3
GAMG:  Solving for p, Initial residual = 0.007978338, Final residual = 6.8773294e-05, No Iterations 3
time step continuity errors : sum local = 5.8167794e-06, global = 9.2157193e-08, cumulative = 0.00025265486
ExecutionTime = 14.716682 s  ClockTime = 15 s

Time = 112s

smoothSolver:  Solving for Ux, Initial residual = 0.0013190322, Final residual = 4.5373814e-05, No Iterations 3
smoothSolver:  Solving for Uy, Initial residual = 0.0055534164, Final residual = 0.00019158746, No Iterations 3
smoothSolver:  Solving for Uz, Initial residual = 0.0010769318, Final residual = 3.794122e-05, No Iterations 3
GAMG:  Solving for p, Initial residual = 0.0079373442, Final residual = 6.833444e-05, No Iterations 3
time step continuity errors : sum local = 5.7853229e-06, global = 9.2481926e-08, cumulative = 0.00025274734
ExecutionTime = 14.841604 s  ClockTime = 15 s

Time = 113s

smoothSolver:  Solving for Ux, Initial residual = 0.0013176685, Final residual = 4.5339527e-05, No Iterations 3
smoothSolver:  Solving for Uy, Initial residual = 0.0054932467, Final residual = 0.00018949736, No Iterations 3
smoothSolver:  Solving for Uz, Initial residual = 0.0010683922, Final residual = 3.7655827e-05, No Iterations 3
GAMG:  Solving for p, Initial residual = 0.0078931904, Final residual = 6.7851172e-05, No Iterations 3
time step continuity errors : sum local = 5.7499715e-06, global = 9.2828585e-08, cumulative = 0.00025284017
ExecutionTime = 14.965096 s  ClockTime = 15 s

Time = 114s

smoothSolver:  Solving for Ux, Initial residual = 0.0013162701, Final residual = 4.5303315e-05, No Iterations 3
smoothSolver:  Solving for Uy, Initial residual = 0.0054336751, Final residual = 0.00018743628, No Iterations 3
smoothSolver:  Solving for Uz, Initial residual = 0.0010599658, Final residual = 3.7375063e-05, No Iterations 3
GAMG:  Solving for p, Initial residual = 0.0078492588, Final residual = 6.7328731e-05, No Iterations 3
time step continuity errors : sum local = 5.7111782e-06, global = 9.3833505e-08, cumulative = 0.000252934
ExecutionTime = 15.089817 s  ClockTime = 16 s

Time = 115s

smoothSolver:  Solving for Ux, Initial residual = 0.001314819, Final residual = 4.5264874e-05, No Iterations 3
smoothSolver:  Solving for Uy, Initial residual = 0.0053747707, Final residual = 0.00018540254, No Iterations 3
smoothSolver:  Solving for Uz, Initial residual = 0.0010516692, Final residual = 3.7097718e-05, No Iterations 3
GAMG:  Solving for p, Initial residual = 0.0078045605, Final residual = 6.6658498e-05, No Iterations 3
time step continuity errors : sum local = 5.6597189e-06, global = 9.5396883e-08, cumulative = 0.0002530294
ExecutionTime = 15.215903 s  ClockTime = 16 s

Time = 116s

smoothSolver:  Solving for Ux, Initial residual = 0.0013133189, Final residual = 4.5225047e-05, No Iterations 3
smoothSolver:  Solving for Uy, Initial residual = 0.0053162934, Final residual = 0.00018339601, No Iterations 3
smoothSolver:  Solving for Uz, Initial residual = 0.0010434889, Final residual = 3.6824104e-05, No Iterations 3
GAMG:  Solving for p, Initial residual = 0.0077603041, Final residual = 6.600905e-05, No Iterations 3
time step continuity errors : sum local = 5.6099121e-06, global = 9.6100047e-08, cumulative = 0.0002531255
ExecutionTime = 15.342229 s  ClockTime = 16 s

Time = 117s

smoothSolver:  Solving for Ux, Initial residual = 0.0013117829, Final residual = 4.5182402e-05, No Iterations 3
smoothSolver:  Solving for Uy, Initial residual = 0.0052580778, Final residual = 0.00018140435, No Iterations 3
smoothSolver:  Solving for Uz, Initial residual = 0.0010354391, Final residual = 3.6554097e-05, No Iterations 3
GAMG:  Solving for p, Initial residual = 0.0077171254, Final residual = 6.5384709e-05, No Iterations 3
time step continuity errors : sum local = 5.5621522e-06, global = 9.6368714e-08, cumulative = 0.00025322187
ExecutionTime = 15.465919 s  ClockTime = 16 s

Time = 118s

smoothSolver:  Solving for Ux, Initial residual = 0.0013101941, Final residual = 4.5135077e-05, No Iterations 3
smoothSolver:  Solving for Uy, Initial residual = 0.0052005244, Final residual = 0.00017943564, No Iterations 3
smoothSolver:  Solving for Uz, Initial residual = 0.0010275043, Final residual = 3.6287512e-05, No Iterations 3
GAMG:  Solving for p, Initial residual = 0.0076723864, Final residual = 6.4835947e-05, No Iterations 3
time step continuity errors : sum local = 5.5207497e-06, global = 9.6289931e-08, cumulative = 0.00025331816
ExecutionTime = 15.58959 s  ClockTime = 16 s

Time = 119s

smoothSolver:  Solving for Ux, Initial residual = 0.0013085686, Final residual = 4.5085707e-05, No Iterations 3
smoothSolver:  Solving for Uy, Initial residual = 0.0051440375, Final residual = 0.00017749785, No Iterations 3
smoothSolver:  Solving for Uz, Initial residual = 0.0010196725, Final residual = 3.6023503e-05, No Iterations 3
GAMG:  Solving for p, Initial residual = 0.007625652, Final residual = 6.4349959e-05, No Iterations 3
time step continuity errors : sum local = 5.4846346e-06, global = 9.5803997e-08, cumulative = 0.00025341396
ExecutionTime = 15.714877 s  ClockTime = 16 s

Time = 120s

smoothSolver:  Solving for Ux, Initial residual = 0.0013068972, Final residual = 4.5034702e-05, No Iterations 3
smoothSolver:  Solving for Uy, Initial residual = 0.0050881253, Final residual = 0.00017558054, No Iterations 3
smoothSolver:  Solving for Uz, Initial residual = 0.0010119264, Final residual = 3.5762122e-05, No Iterations 3
GAMG:  Solving for p, Initial residual = 0.0075775344, Final residual = 6.3929673e-05, No Iterations 3
time step continuity errors : sum local = 5.4540452e-06, global = 9.4900311e-08, cumulative = 0.00025350886
ExecutionTime = 15.841123 s  ClockTime = 16 s

Time = 121s

smoothSolver:  Solving for Ux, Initial residual = 0.0013051729, Final residual = 4.4980942e-05, No Iterations 3
smoothSolver:  Solving for Uy, Initial residual = 0.0050329597, Final residual = 0.00017367453, No Iterations 3
smoothSolver:  Solving for Uz, Initial residual = 0.0010042724, Final residual = 3.5503913e-05, No Iterations 3
GAMG:  Solving for p, Initial residual = 0.0075312623, Final residual = 6.3576537e-05, No Iterations 3
time step continuity errors : sum local = 5.4291336e-06, global = 9.4153695e-08, cumulative = 0.00025360301
ExecutionTime = 15.964567 s  ClockTime = 16 s

Time = 122s

smoothSolver:  Solving for Ux, Initial residual = 0.0013034011, Final residual = 4.4925074e-05, No Iterations 3
smoothSolver:  Solving for Uy, Initial residual = 0.0049784874, Final residual = 0.00017178488, No Iterations 3
smoothSolver:  Solving for Uz, Initial residual = 0.00099672378, Final residual = 3.5248521e-05, No Iterations 3
GAMG:  Solving for p, Initial residual = 0.0074876212, Final residual = 6.3242004e-05, No Iterations 3
time step continuity errors : sum local = 5.4057522e-06, global = 9.3640341e-08, cumulative = 0.00025369666
ExecutionTime = 16.090296 s  ClockTime = 17 s

Time = 123s

smoothSolver:  Solving for Ux, Initial residual = 0.0013015897, Final residual = 4.4869831e-05, No Iterations 3
smoothSolver:  Solving for Uy, Initial residual = 0.0049247125, Final residual = 0.00016991848, No Iterations 3
smoothSolver:  Solving for Uz, Initial residual = 0.00098927594, Final residual = 3.4996295e-05, No Iterations 3
GAMG:  Solving for p, Initial residual = 0.0074464823, Final residual = 6.290451e-05, No Iterations 3
time step continuity errors : sum local = 5.3820782e-06, global = 9.3399521e-08, cumulative = 0.00025379005
ExecutionTime = 16.220313 s  ClockTime = 17 s

Time = 124s

smoothSolver:  Solving for Ux, Initial residual = 0.0012997352, Final residual = 4.4814714e-05, No Iterations 3
smoothSolver:  Solving for Uy, Initial residual = 0.0048719461, Final residual = 0.00016808024, No Iterations 3
smoothSolver:  Solving for Uz, Initial residual = 0.0009819182, Final residual = 3.4747245e-05, No Iterations 3
GAMG:  Solving for p, Initial residual = 0.0074074509, Final residual = 6.2518097e-05, No Iterations 3
time step continuity errors : sum local = 5.3541574e-06, global = 9.3368985e-08, cumulative = 0.00025388342
ExecutionTime = 16.346539 s  ClockTime = 17 s

Time = 125s

smoothSolver:  Solving for Ux, Initial residual = 0.0012978699, Final residual = 4.4759658e-05, No Iterations 3
smoothSolver:  Solving for Uy, Initial residual = 0.0048199311, Final residual = 0.00016626346, No Iterations 3
smoothSolver:  Solving for Uz, Initial residual = 0.00097465893, Final residual = 3.4500758e-05, No Iterations 3
GAMG:  Solving for p, Initial residual = 0.0073694204, Final residual = 6.2021464e-05, No Iterations 3
time step continuity errors : sum local = 5.316729e-06, global = 9.3374668e-08, cumulative = 0.0002539768
ExecutionTime = 16.471767 s  ClockTime = 17 s

Time = 126s

smoothSolver:  Solving for Ux, Initial residual = 0.0012959671, Final residual = 4.4705334e-05, No Iterations 3
smoothSolver:  Solving for Uy, Initial residual = 0.0047687233, Final residual = 0.00016446339, No Iterations 3
smoothSolver:  Solving for Uz, Initial residual = 0.00096748076, Final residual = 3.4257339e-05, No Iterations 3
GAMG:  Solving for p, Initial residual = 0.0073321749, Final residual = 6.1479873e-05, No Iterations 3
time step continuity errors : sum local = 5.2753604e-06, global = 9.331382e-08, cumulative = 0.00025407011
ExecutionTime = 16.596458 s  ClockTime = 17 s

Time = 127s

smoothSolver:  Solving for Ux, Initial residual = 0.001294024, Final residual = 4.4649886e-05, No Iterations 3
smoothSolver:  Solving for Uy, Initial residual = 0.0047181971, Final residual = 0.00016268598, No Iterations 3
smoothSolver:  Solving for Uz, Initial residual = 0.00096038097, Final residual = 3.4016239e-05, No Iterations 3
GAMG:  Solving for p, Initial residual = 0.0072932698, Final residual = 6.0920845e-05, No Iterations 3
time step continuity errors : sum local = 5.2324174e-06, global = 9.3051908e-08, cumulative = 0.00025416316
ExecutionTime = 16.722127 s  ClockTime = 17 s

Time = 128s

smoothSolver:  Solving for Ux, Initial residual = 0.0012920195, Final residual = 4.4591466e-05, No Iterations 3
smoothSolver:  Solving for Uy, Initial residual = 0.0046683943, Final residual = 0.00016093534, No Iterations 3
smoothSolver:  Solving for Uz, Initial residual = 0.00095335402, Final residual = 3.3777509e-05, No Iterations 3
GAMG:  Solving for p, Initial residual = 0.0072570978, Final residual = 6.0416925e-05, No Iterations 3
time step continuity errors : sum local = 5.1941347e-06, global = 9.2897868e-08, cumulative = 0.00025425606
ExecutionTime = 16.847493 s  ClockTime = 17 s

Time = 129s

smoothSolver:  Solving for Ux, Initial residual = 0.0012899345, Final residual = 4.4531828e-05, No Iterations 3
smoothSolver:  Solving for Uy, Initial residual = 0.0046193688, Final residual = 0.00015921371, No Iterations 3
smoothSolver:  Solving for Uz, Initial residual = 0.0009464091, Final residual = 3.3541336e-05, No Iterations 3
GAMG:  Solving for p, Initial residual = 0.0072182657, Final residual = 5.9889976e-05, No Iterations 3
time step continuity errors : sum local = 5.1537856e-06, global = 9.2117023e-08, cumulative = 0.00025434818
ExecutionTime = 16.971822 s  ClockTime = 17 s

Time = 130s

smoothSolver:  Solving for Ux, Initial residual = 0.0012877807, Final residual = 4.447085e-05, No Iterations 3
smoothSolver:  Solving for Uy, Initial residual = 0.004571152, Final residual = 0.00015751591, No Iterations 3
smoothSolver:  Solving for Uz, Initial residual = 0.00093953609, Final residual = 3.330717e-05, No Iterations 3
[...]
GAMG:  Solving for p, Initial residual = 1.6525711e-05, Final residual = 7.9156795e-08, No Iterations 3
time step continuity errors : sum local = 7.8946817e-09, global = -8.0310709e-10, cumulative = 0.00026861795
ExecutionTime = 112.38621 s  ClockTime = 114 s

Time = 909s

smoothSolver:  Solving for Ux, Initial residual = 3.5741401e-06, Final residual = 1.3611143e-07, No Iterations 3
smoothSolver:  Solving for Uy, Initial residual = 1.0618689e-05, Final residual = 4.0005134e-07, No Iterations 3
smoothSolver:  Solving for Uz, Initial residual = 1.1942755e-06, Final residual = 4.4883598e-08, No Iterations 3
GAMG:  Solving for p, Initial residual = 1.6298721e-05, Final residual = 1.5865617e-07, No Iterations 2
time step continuity errors : sum local = 1.5823514e-08, global = -2.0491541e-09, cumulative = 0.0002686159
ExecutionTime = 112.50351 s  ClockTime = 114 s

Time = 910s

smoothSolver:  Solving for Ux, Initial residual = 3.5132754e-06, Final residual = 1.3380869e-07, No Iterations 3
smoothSolver:  Solving for Uy, Initial residual = 1.0507293e-05, Final residual = 3.963461e-07, No Iterations 3
smoothSolver:  Solving for Uz, Initial residual = 1.1746966e-06, Final residual = 4.4155696e-08, No Iterations 3
GAMG:  Solving for p, Initial residual = 1.605528e-05, Final residual = 7.1949456e-08, No Iterations 3
time step continuity errors : sum local = 7.1758422e-09, global = -7.6020018e-10, cumulative = 0.00026861514
ExecutionTime = 112.62718 s  ClockTime = 114 s

Time = 911s

smoothSolver:  Solving for Ux, Initial residual = 3.4553092e-06, Final residual = 1.3157614e-07, No Iterations 3
smoothSolver:  Solving for Uy, Initial residual = 1.0412133e-05, Final residual = 3.9321703e-07, No Iterations 3
smoothSolver:  Solving for Uz, Initial residual = 1.1560357e-06, Final residual = 4.3452753e-08, No Iterations 3
GAMG:  Solving for p, Initial residual = 1.5827601e-05, Final residual = 1.4997616e-07, No Iterations 2
time step continuity errors : sum local = 1.4957779e-08, global = -1.8383151e-09, cumulative = 0.00026861331
ExecutionTime = 112.74295 s  ClockTime = 114 s

Time = 912s

smoothSolver:  Solving for Ux, Initial residual = 3.3954054e-06, Final residual = 1.2930027e-07, No Iterations 3
smoothSolver:  Solving for Uy, Initial residual = 1.0297059e-05, Final residual = 3.8935435e-07, No Iterations 3
smoothSolver:  Solving for Uz, Initial residual = 1.136702e-06, Final residual = 4.2733776e-08, No Iterations 3
GAMG:  Solving for p, Initial residual = 1.5585942e-05, Final residual = 6.8093846e-08, No Iterations 3
time step continuity errors : sum local = 6.7912873e-09, global = -7.7053573e-10, cumulative = 0.00026861254
ExecutionTime = 112.86814 s  ClockTime = 114 s

Time = 913s

smoothSolver:  Solving for Ux, Initial residual = 3.3380123e-06, Final residual = 1.2709075e-07, No Iterations 3
smoothSolver:  Solving for Uy, Initial residual = 1.0200768e-05, Final residual = 3.8615952e-07, No Iterations 3
smoothSolver:  Solving for Uz, Initial residual = 1.1182532e-06, Final residual = 4.2038769e-08, No Iterations 3
GAMG:  Solving for p, Initial residual = 1.5360662e-05, Final residual = 1.4971272e-07, No Iterations 2
time step continuity errors : sum local = 1.4931464e-08, global = -1.7696297e-09, cumulative = 0.00026861077
ExecutionTime = 112.98386 s  ClockTime = 115 s

Time = 914s

smoothSolver:  Solving for Ux, Initial residual = 3.2793491e-06, Final residual = 1.248479e-07, No Iterations 3
smoothSolver:  Solving for Uy, Initial residual = 1.0087552e-05, Final residual = 3.8234822e-07, No Iterations 3
smoothSolver:  Solving for Uz, Initial residual = 1.0993448e-06, Final residual = 4.1333359e-08, No Iterations 3
GAMG:  Solving for p, Initial residual = 1.5125462e-05, Final residual = 6.8593137e-08, No Iterations 3
time step continuity errors : sum local = 6.8410651e-09, global = -7.8898095e-10, cumulative = 0.00026860998
ExecutionTime = 113.10842 s  ClockTime = 115 s

Time = 915s

smoothSolver:  Solving for Ux, Initial residual = 3.2233981e-06, Final residual = 1.2267545e-07, No Iterations 3
smoothSolver:  Solving for Uy, Initial residual = 9.9946461e-06, Final residual = 3.7927873e-07, No Iterations 3
smoothSolver:  Solving for Uz, Initial residual = 1.0813246e-06, Final residual = 4.0652202e-08, No Iterations 3
GAMG:  Solving for p, Initial residual = 1.4907022e-05, Final residual = 1.4876128e-07, No Iterations 2
time step continuity errors : sum local = 1.4836532e-08, global = -1.7733259e-09, cumulative = 0.0002686082
ExecutionTime = 113.22598 s  ClockTime = 115 s

Time = 916s

smoothSolver:  Solving for Ux, Initial residual = 3.1661022e-06, Final residual = 1.2047733e-07, No Iterations 3
smoothSolver:  Solving for Uy, Initial residual = 9.8843976e-06, Final residual = 3.7556011e-07, No Iterations 3
smoothSolver:  Solving for Uz, Initial residual = 1.0628576e-06, Final residual = 3.9960393e-08, No Iterations 3
GAMG:  Solving for p, Initial residual = 1.4677869e-05, Final residual = 6.8052772e-08, No Iterations 3
time step continuity errors : sum local = 6.7871539e-09, global = -7.6181745e-10, cumulative = 0.00026860744
ExecutionTime = 113.35071 s  ClockTime = 115 s

Time = 917s

smoothSolver:  Solving for Ux, Initial residual = 3.1116397e-06, Final residual = 1.183606e-07, No Iterations 3
smoothSolver:  Solving for Uy, Initial residual = 9.7927186e-06, Final residual = 3.7248524e-07, No Iterations 3
smoothSolver:  Solving for Uz, Initial residual = 1.0452504e-06, Final residual = 3.9290514e-08, No Iterations 3
GAMG:  Solving for p, Initial residual = 1.4464808e-05, Final residual = 1.4343824e-07, No Iterations 2
time step continuity errors : sum local = 1.4305607e-08, global = -1.7039267e-09, cumulative = 0.00026860574
ExecutionTime = 113.46655 s  ClockTime = 115 s

Time = 918s

smoothSolver:  Solving for Ux, Initial residual = 3.0556837e-06, Final residual = 1.1620962e-07, No Iterations 3
smoothSolver:  Solving for Uy, Initial residual = 9.6821125e-06, Final residual = 3.6871163e-07, No Iterations 3
smoothSolver:  Solving for Uz, Initial residual = 1.0271531e-06, Final residual = 3.8610132e-08, No Iterations 3
GAMG:  Solving for p, Initial residual = 1.423954e-05, Final residual = 6.5193747e-08, No Iterations 3
time step continuity errors : sum local = 6.5019954e-09, global = -7.194276e-10, cumulative = 0.00026860502
ExecutionTime = 113.59224 s  ClockTime = 115 s

Time = 919s

smoothSolver:  Solving for Ux, Initial residual = 3.0024086e-06, Final residual = 1.1413634e-07, No Iterations 3
smoothSolver:  Solving for Uy, Initial residual = 9.5888913e-06, Final residual = 3.6554672e-07, No Iterations 3
smoothSolver:  Solving for Uz, Initial residual = 1.00987e-06, Final residual = 3.7951268e-08, No Iterations 3
GAMG:  Solving for p, Initial residual = 1.4029347e-05, Final residual = 1.3887677e-07, No Iterations 2
time step continuity errors : sum local = 1.3850638e-08, global = -1.5649615e-09, cumulative = 0.00026860345
ExecutionTime = 113.70798 s  ClockTime = 115 s

Time = 920s

smoothSolver:  Solving for Ux, Initial residual = 2.9476895e-06, Final residual = 1.120302e-07, No Iterations 3
smoothSolver:  Solving for Uy, Initial residual = 9.4775772e-06, Final residual = 3.6170186e-07, No Iterations 3
smoothSolver:  Solving for Uz, Initial residual = 9.921169e-07, Final residual = 3.7282365e-08, No Iterations 3
GAMG:  Solving for p, Initial residual = 1.3807306e-05, Final residual = 6.2426428e-08, No Iterations 3
time step continuity errors : sum local = 6.2259846e-09, global = -7.0380399e-10, cumulative = 0.00026860275
ExecutionTime = 113.83248 s  ClockTime = 115 s

Time = 921s

smoothSolver:  Solving for Ux, Initial residual = 2.895461e-06, Final residual = 1.099977e-07, No Iterations 3
smoothSolver:  Solving for Uy, Initial residual = 9.3837203e-06, Final residual = 3.5846664e-07, No Iterations 3
smoothSolver:  Solving for Uz, Initial residual = 9.7511366e-07, Final residual = 3.6634893e-08, No Iterations 3
GAMG:  Solving for p, Initial residual = 1.36006e-05, Final residual = 5.7395382e-08, No Iterations 3
time step continuity errors : sum local = 5.7242152e-09, global = -6.5694969e-10, cumulative = 0.00026860209
ExecutionTime = 113.95574 s  ClockTime = 115 s

Time = 922s

smoothSolver:  Solving for Ux, Initial residual = 2.8435344e-06, Final residual = 1.0798265e-07, No Iterations 3
smoothSolver:  Solving for Uy, Initial residual = 9.2856204e-06, Final residual = 3.5507266e-07, No Iterations 3
smoothSolver:  Solving for Uz, Initial residual = 9.58137e-07, Final residual = 3.5990074e-08, No Iterations 3
GAMG:  Solving for p, Initial residual = 1.3391492e-05, Final residual = 1.2862177e-07, No Iterations 2
time step continuity errors : sum local = 1.2827822e-08, global = -1.217613e-09, cumulative = 0.00026860087
ExecutionTime = 114.07248 s  ClockTime = 116 s

Time = 923s

smoothSolver:  Solving for Ux, Initial residual = 2.7909624e-06, Final residual = 1.0595808e-07, No Iterations 3
smoothSolver:  Solving for Uy, Initial residual = 9.1714949e-06, Final residual = 3.5109399e-07, No Iterations 3
smoothSolver:  Solving for Uz, Initial residual = 9.4088043e-07, Final residual = 3.5339676e-08, No Iterations 3
GAMG:  Solving for p, Initial residual = 1.3174031e-05, Final residual = 5.6760596e-08, No Iterations 3
time step continuity errors : sum local = 5.6608905e-09, global = -6.333134e-10, cumulative = 0.00026860024
ExecutionTime = 114.19705 s  ClockTime = 116 s

Time = 924s

smoothSolver:  Solving for Ux, Initial residual = 2.7404639e-06, Final residual = 1.0399899e-07, No Iterations 3
smoothSolver:  Solving for Uy, Initial residual = 9.0754245e-06, Final residual = 3.4774433e-07, No Iterations 3
smoothSolver:  Solving for Uz, Initial residual = 9.2430102e-07, Final residual = 3.4708403e-08, No Iterations 3
GAMG:  Solving for p, Initial residual = 1.2971403e-05, Final residual = 5.5053625e-08, No Iterations 3
time step continuity errors : sum local = 5.4906421e-09, global = -5.9794118e-10, cumulative = 0.00026859964
ExecutionTime = 114.32164 s  ClockTime = 116 s

Time = 925s

smoothSolver:  Solving for Ux, Initial residual = 2.6906864e-06, Final residual = 1.020688e-07, No Iterations 3
smoothSolver:  Solving for Uy, Initial residual = 8.9780169e-06, Final residual = 3.4434368e-07, No Iterations 3
smoothSolver:  Solving for Uz, Initial residual = 9.0789646e-07, Final residual = 3.4082351e-08, No Iterations 3
GAMG:  Solving for p, Initial residual = 1.2769419e-05, Final residual = 1.2716647e-07, No Iterations 2
time step continuity errors : sum local = 1.2682627e-08, global = -1.0991204e-09, cumulative = 0.00026859854
ExecutionTime = 114.43813 s  ClockTime = 116 s

Time = 926s

smoothSolver:  Solving for Ux, Initial residual = 2.6404969e-06, Final residual = 1.0013756e-07, No Iterations 3
smoothSolver:  Solving for Uy, Initial residual = 8.8666456e-06, Final residual = 3.4041269e-07, No Iterations 3
smoothSolver:  Solving for Uz, Initial residual = 8.9133922e-07, Final residual = 3.3454345e-08, No Iterations 3
GAMG:  Solving for p, Initial residual = 1.2560846e-05, Final residual = 5.7028388e-08, No Iterations 3
time step continuity errors : sum local = 5.6875747e-09, global = -5.8100515e-10, cumulative = 0.00026859796
ExecutionTime = 114.56273 s  ClockTime = 116 s

Time = 927s

smoothSolver:  Solving for Ux, Initial residual = 2.5925625e-06, Final residual = 9.8278345e-08, No Iterations 3
smoothSolver:  Solving for Uy, Initial residual = 8.7737911e-06, Final residual = 3.3711945e-07, No Iterations 3
smoothSolver:  Solving for Uz, Initial residual = 8.7547607e-07, Final residual = 3.2846291e-08, No Iterations 3
GAMG:  Solving for p, Initial residual = 1.236629e-05, Final residual = 5.4368009e-08, No Iterations 3
time step continuity errors : sum local = 5.4222416e-09, global = -5.3806442e-10, cumulative = 0.00026859743
ExecutionTime = 114.68748 s  ClockTime = 116 s

Time = 928s

smoothSolver:  Solving for Ux, Initial residual = 2.5453683e-06, Final residual = 9.6449923e-08, No Iterations 3
smoothSolver:  Solving for Uy, Initial residual = 8.6783375e-06, Final residual = 3.3369755e-07, No Iterations 3
smoothSolver:  Solving for Uz, Initial residual = 8.5976463e-07, Final residual = 3.2244346e-08, No Iterations 3
GAMG:  Solving for p, Initial residual = 1.2171236e-05, Final residual = 1.2106481e-07, No Iterations 2
time step continuity errors : sum local = 1.2074044e-08, global = -9.7577439e-10, cumulative = 0.00026859645
ExecutionTime = 114.80482 s  ClockTime = 116 s

Time = 929s

smoothSolver:  Solving for Ux, Initial residual = 2.4976036e-06, Final residual = 9.4610936e-08, No Iterations 3
smoothSolver:  Solving for Uy, Initial residual = 8.5676151e-06, Final residual = 3.2969785e-07, No Iterations 3
smoothSolver:  Solving for Uz, Initial residual = 8.4387168e-07, Final residual = 3.1638818e-08, No Iterations 3
GAMG:  Solving for p, Initial residual = 1.1967872e-05, Final residual = 5.3962392e-08, No Iterations 3
time step continuity errors : sum local = 5.3817741e-09, global = -4.9219367e-10, cumulative = 0.00026859596
ExecutionTime = 114.92873 s  ClockTime = 116 s

Time = 930s

smoothSolver:  Solving for Ux, Initial residual = 2.4519486e-06, Final residual = 9.2841216e-08, No Iterations 3
smoothSolver:  Solving for Uy, Initial residual = 8.4730565e-06, Final residual = 3.26268e-07, No Iterations 3
smoothSolver:  Solving for Uz, Initial residual = 8.2864402e-07, Final residual = 3.1052304e-08, No Iterations 3
GAMG:  Solving for p, Initial residual = 1.1778292e-05, Final residual = 5.1223991e-08, No Iterations 3
time step continuity errors : sum local = 5.1086613e-09, global = -4.4535749e-10, cumulative = 0.00026859551
ExecutionTime = 115.05332 s  ClockTime = 117 s

Time = 931s

smoothSolver:  Solving for Ux, Initial residual = 2.406884e-06, Final residual = 9.1099195e-08, No Iterations 3
smoothSolver:  Solving for Uy, Initial residual = 8.3758397e-06, Final residual = 3.2273537e-07, No Iterations 3
smoothSolver:  Solving for Uz, Initial residual = 8.1355827e-07, Final residual = 3.0472113e-08, No Iterations 3
GAMG:  Solving for p, Initial residual = 1.1589074e-05, Final residual = 4.7500347e-08, No Iterations 3
time step continuity errors : sum local = 4.7372894e-09, global = -3.8511865e-10, cumulative = 0.00026859513
ExecutionTime = 115.17782 s  ClockTime = 117 s

Time = 932s

smoothSolver:  Solving for Ux, Initial residual = 2.3622519e-06, Final residual = 8.9384631e-08, No Iterations 3
smoothSolver:  Solving for Uy, Initial residual = 8.2753258e-06, Final residual = 3.1903951e-07, No Iterations 3
smoothSolver:  Solving for Uz, Initial residual = 7.9858861e-07, Final residual = 2.9898013e-08, No Iterations 3
GAMG:  Solving for p, Initial residual = 1.1398889e-05, Final residual = 1.1091145e-07, No Iterations 2
time step continuity errors : sum local = 1.1061371e-08, global = -6.3572159e-10, cumulative = 0.00026859449
ExecutionTime = 115.29664 s  ClockTime = 117 s

Time = 933s

smoothSolver:  Solving for Ux, Initial residual = 2.3173854e-06, Final residual = 8.766969e-08, No Iterations 3
smoothSolver:  Solving for Uy, Initial residual = 8.1630691e-06, Final residual = 3.1490294e-07, No Iterations 3
smoothSolver:  Solving for Uz, Initial residual = 7.8351237e-07, Final residual = 2.9323036e-08, No Iterations 3
GAMG:  Solving for p, Initial residual = 1.1203461e-05, Final residual = 4.9784479e-08, No Iterations 3
time step continuity errors : sum local = 4.9650767e-09, global = -3.1713188e-10, cumulative = 0.00026859417
ExecutionTime = 115.41998 s  ClockTime = 117 s

Time = 934s

smoothSolver:  Solving for Ux, Initial residual = 2.2743099e-06, Final residual = 8.6013305e-08, No Iterations 3
smoothSolver:  Solving for Uy, Initial residual = 8.0682937e-06, Final residual = 3.1137862e-07, No Iterations 3
smoothSolver:  Solving for Uz, Initial residual = 7.69027e-07, Final residual = 2.8764201e-08, No Iterations 3
GAMG:  Solving for p, Initial residual = 1.1021841e-05, Final residual = 4.8952432e-08, No Iterations 3
time step continuity errors : sum local = 4.8820892e-09, global = -2.7676919e-10, cumulative = 0.0002685939
ExecutionTime = 115.54375 s  ClockTime = 117 s

Time = 935s

smoothSolver:  Solving for Ux, Initial residual = 2.2321132e-06, Final residual = 8.4392434e-08, No Iterations 3
smoothSolver:  Solving for Uy, Initial residual = 7.9735646e-06, Final residual = 3.0785955e-07, No Iterations 3
smoothSolver:  Solving for Uz, Initial residual = 7.5474494e-07, Final residual = 2.8213047e-08, No Iterations 3
GAMG:  Solving for p, Initial residual = 1.0842306e-05, Final residual = 4.6259756e-08, No Iterations 3
time step continuity errors : sum local = 4.6135393e-09, global = -2.2858489e-10, cumulative = 0.00026859367
ExecutionTime = 115.6673 s  ClockTime = 117 s

Time = 936s

smoothSolver:  Solving for Ux, Initial residual = 2.1906939e-06, Final residual = 8.2802089e-08, No Iterations 3
smoothSolver:  Solving for Uy, Initial residual = 7.8768166e-06, Final residual = 3.0425767e-07, No Iterations 3
smoothSolver:  Solving for Uz, Initial residual = 7.4062373e-07, Final residual = 2.7669706e-08, No Iterations 3
GAMG:  Solving for p, Initial residual = 1.0662707e-05, Final residual = 1.0610384e-07, No Iterations 2
time step continuity errors : sum local = 1.0581846e-08, global = -4.1212336e-10, cumulative = 0.00026859326
ExecutionTime = 115.78445 s  ClockTime = 117 s

Time = 937s

smoothSolver:  Solving for Ux, Initial residual = 2.1491723e-06, Final residual = 8.1210929e-08, No Iterations 3
smoothSolver:  Solving for Uy, Initial residual = 7.768431e-06, Final residual = 3.0020617e-07, No Iterations 3
smoothSolver:  Solving for Uz, Initial residual = 7.2645542e-07, Final residual = 2.7128419e-08, No Iterations 3
GAMG:  Solving for p, Initial residual = 1.0477013e-05, Final residual = 4.752003e-08, No Iterations 3
time step continuity errors : sum local = 4.739216e-09, global = -1.6762952e-10, cumulative = 0.00026859309
ExecutionTime = 115.90808 s  ClockTime = 117 s

Time = 938s

smoothSolver:  Solving for Ux, Initial residual = 2.1096757e-06, Final residual = 7.9688202e-08, No Iterations 3
smoothSolver:  Solving for Uy, Initial residual = 7.6754138e-06, Final residual = 2.9671091e-07, No Iterations 3
smoothSolver:  Solving for Uz, Initial residual = 7.1286252e-07, Final residual = 2.6605774e-08, No Iterations 3
GAMG:  Solving for p, Initial residual = 1.030445e-05, Final residual = 4.5978114e-08, No Iterations 3
time step continuity errors : sum local = 4.5854335e-09, global = -1.3015517e-10, cumulative = 0.00026859296
ExecutionTime = 116.0321 s  ClockTime = 118 s

Time = 939s

smoothSolver:  Solving for Ux, Initial residual = 2.0709485e-06, Final residual = 7.8198665e-08, No Iterations 3
smoothSolver:  Solving for Uy, Initial residual = 7.5815107e-06, Final residual = 2.9316756e-07, No Iterations 3
smoothSolver:  Solving for Uz, Initial residual = 6.9951135e-07, Final residual = 2.6092081e-08, No Iterations 3
GAMG:  Solving for p, Initial residual = 1.0133961e-05, Final residual = 4.3158879e-08, No Iterations 3
time step continuity errors : sum local = 4.3042638e-09, global = -9.3956815e-11, cumulative = 0.00026859286
ExecutionTime = 116.15574 s  ClockTime = 118 s

Time = 940s

smoothSolver:  Solving for Ux, Initial residual = 2.0329017e-06, Final residual = 7.673735e-08, No Iterations 3
smoothSolver:  Solving for Uy, Initial residual = 7.485244e-06, Final residual = 2.8951919e-07, No Iterations 3
smoothSolver:  Solving for Uz, Initial residual = 6.8636289e-07, Final residual = 2.558639e-08, No Iterations 3
GAMG:  Solving for p, Initial residual = 9.9637288e-06, Final residual = 9.85932e-08, No Iterations 2
time step continuity errors : sum local = 9.8327538e-09, global = -1.9627657e-10, cumulative = 0.00026859267
ExecutionTime = 116.27343 s  ClockTime = 118 s


SIMPLE solution converged in 940 iterations

End

Finalising parallel run
