/*---------------------------------------------------------------------------*\
  =========                 |
  \\      /  F ield         | OpenFOAM: The Open Source CFD Toolbox
   \\    /   O peration     | Website:  https://openfoam.org
    \\  /    A nd           | Version:  11
     \\/     M anipulation  |
\*---------------------------------------------------------------------------*/
Build  : 11-e1fc8c682ae6
Exec   : foamRun -solver incompressibleFluid -parallel
Date   : Feb 09 2026
Time   : 03:14:15
Host   : "ip-172-31-18-192"
PID    : 133118
I/O    : uncollated
Case   : /home/ubuntu/cases/bifurcation_angle45_1000_ascii/Re100
nProcs : 16
Slaves : 
15
(
"ip-172-31-18-192.133119"
"ip-172-31-18-192.133120"
"ip-172-31-18-192.133121"
"ip-172-31-18-192.133122"
"ip-172-31-18-192.133123"
"ip-172-31-18-192.133124"
"ip-172-31-18-192.133125"
"ip-172-31-18-192.133126"
"ip-172-31-18-192.133127"
"ip-172-31-18-192.133128"
"ip-172-31-18-192.133129"
"ip-172-31-18-192.133130"
"ip-172-31-18-192.133131"
"ip-172-31-18-192.133132"
"ip-172-31-18-192.133133"
)

Pstream initialised with:
    floatTransfer      : false
    nProcsSimpleSum    : 0
    commsType          : nonBlocking
    polling iterations : 0
sigFpe : Enabling floating point exception trapping (FOAM_SIGFPE).
fileModificationChecking : Monitoring run-time modified files using timeStampMaster (fileModificationSkew 10)
allowSystemOperations : Allowing user-supplied system call operations

// * * * * * * * * * * * * * * * * * * * * * * * * * * * * * * * * * * * * * //
Create time

Create mesh for time = 0

Selecting solver incompressibleFluid
Selecting viscosity model Newtonian
Selecting turbulence model type laminar
Selecting laminar stress model Stokes
No MRF models present


SIMPLE: Convergence criteria found
        p: tolerance 1e-05
        U: tolerance 1e-05


SIMPLE: Operating solver in steady-state mode with 1 outer corrector
SIMPLE: Operating solver in SIMPLE mode



Starting time loop

wallShearStress wallShearStress:
    processing wall patches: 
        wall-fluid_domain

Time = 1s

smoothSolver:  Solving for Ux, Initial residual = 1, Final residual = 0.049108362, No Iterations 1
smoothSolver:  Solving for Uy, Initial residual = 1, Final residual = 0.056262895, No Iterations 1
smoothSolver:  Solving for Uz, Initial residual = 1, Final residual = 0.037505161, No Iterations 1
GAMG:  Solving for p, Initial residual = 1, Final residual = 0.0099153025, No Iterations 10
time step continuity errors : sum local = 6.6967215e-05, global = -9.5329256e-07, cumulative = -9.5329256e-07
ExecutionTime = 0.802965 s  ClockTime = 1 s

Time = 2s

smoothSolver:  Solving for Ux, Initial residual = 0.24992617, Final residual = 0.020603718, No Iterations 2
smoothSolver:  Solving for Uy, Initial residual = 0.25727199, Final residual = 0.010471655, No Iterations 2
smoothSolver:  Solving for Uz, Initial residual = 0.36060562, Final residual = 0.011617008, No Iterations 3
GAMG:  Solving for p, Initial residual = 0.23479187, Final residual = 0.0012338975, No Iterations 6
time step continuity errors : sum local = 0.0015162652, global = -2.1608311e-05, cumulative = -2.2561603e-05
ExecutionTime = 1.04788 s  ClockTime = 2 s

Time = 3s

smoothSolver:  Solving for Ux, Initial residual = 0.23727153, Final residual = 0.0075460474, No Iterations 3
smoothSolver:  Solving for Uy, Initial residual = 0.11763484, Final residual = 0.0065297945, No Iterations 2
smoothSolver:  Solving for Uz, Initial residual = 0.55287637, Final residual = 0.019060109, No Iterations 3
GAMG:  Solving for p, Initial residual = 0.14818342, Final residual = 0.00062458068, No Iterations 4
time step continuity errors : sum local = 0.0020782149, global = 4.1034347e-06, cumulative = -1.8458168e-05
ExecutionTime = 1.300801 s  ClockTime = 2 s

Time = 4s

smoothSolver:  Solving for Ux, Initial residual = 0.1418673, Final residual = 0.004664339, No Iterations 3
smoothSolver:  Solving for Uy, Initial residual = 0.06442783, Final residual = 0.0036284172, No Iterations 2
smoothSolver:  Solving for Uz, Initial residual = 0.3663584, Final residual = 0.012665278, No Iterations 3
GAMG:  Solving for p, Initial residual = 0.09593927, Final residual = 0.00039639995, No Iterations 6
time step continuity errors : sum local = 0.0012145229, global = 8.8224798e-06, cumulative = -9.6356885e-06
ExecutionTime = 1.542038 s  ClockTime = 2 s

Time = 5s

smoothSolver:  Solving for Ux, Initial residual = 0.062386867, Final residual = 0.005782708, No Iterations 2
smoothSolver:  Solving for Uy, Initial residual = 0.21671576, Final residual = 0.01344736, No Iterations 2
smoothSolver:  Solving for Uz, Initial residual = 0.11588297, Final residual = 0.0040273906, No Iterations 3
GAMG:  Solving for p, Initial residual = 0.13056812, Final residual = 0.00088530191, No Iterations 6
time step continuity errors : sum local = 0.0012016133, global = 1.684539e-05, cumulative = 7.2097013e-06
ExecutionTime = 1.798256 s  ClockTime = 2 s

Time = 6s

smoothSolver:  Solving for Ux, Initial residual = 0.081826485, Final residual = 0.0071033188, No Iterations 2
smoothSolver:  Solving for Uy, Initial residual = 0.39273658, Final residual = 0.023641543, No Iterations 2
smoothSolver:  Solving for Uz, Initial residual = 0.089631699, Final residual = 0.0030340182, No Iterations 3
GAMG:  Solving for p, Initial residual = 0.39627708, Final residual = 0.0031476828, No Iterations 4
time step continuity errors : sum local = 0.0034746371, global = 4.1166888e-05, cumulative = 4.8376589e-05
ExecutionTime = 2.009951 s  ClockTime = 3 s

Time = 7s

smoothSolver:  Solving for Ux, Initial residual = 0.12448658, Final residual = 0.011978511, No Iterations 2
smoothSolver:  Solving for Uy, Initial residual = 0.22372156, Final residual = 0.012879469, No Iterations 2
smoothSolver:  Solving for Uz, Initial residual = 0.21011833, Final residual = 0.0072079915, No Iterations 3
GAMG:  Solving for p, Initial residual = 0.26512324, Final residual = 0.0012881547, No Iterations 4
time step continuity errors : sum local = 0.0022055463, global = -6.2958225e-06, cumulative = 4.2080766e-05
ExecutionTime = 2.221997 s  ClockTime = 3 s

Time = 8s

smoothSolver:  Solving for Ux, Initial residual = 0.10192902, Final residual = 0.0031989791, No Iterations 3
smoothSolver:  Solving for Uy, Initial residual = 0.12726912, Final residual = 0.0084995767, No Iterations 2
smoothSolver:  Solving for Uz, Initial residual = 0.19951541, Final residual = 0.0068461483, No Iterations 3
GAMG:  Solving for p, Initial residual = 0.20811483, Final residual = 0.0012044333, No Iterations 5
time step continuity errors : sum local = 0.0015815367, global = -1.0554886e-05, cumulative = 3.1525881e-05
ExecutionTime = 2.450719 s  ClockTime = 3 s

Time = 9s

smoothSolver:  Solving for Ux, Initial residual = 0.046822976, Final residual = 0.0039227045, No Iterations 2
smoothSolver:  Solving for Uy, Initial residual = 0.28796282, Final residual = 0.020942458, No Iterations 2
smoothSolver:  Solving for Uz, Initial residual = 0.057185749, Final residual = 0.0018319707, No Iterations 3
GAMG:  Solving for p, Initial residual = 0.26565625, Final residual = 0.0012510374, No Iterations 6
time step continuity errors : sum local = 0.00053124067, global = -4.7313606e-06, cumulative = 2.679452e-05
ExecutionTime = 2.683729 s  ClockTime = 3 s

Time = 10s

smoothSolver:  Solving for Ux, Initial residual = 0.06378695, Final residual = 0.0058546521, No Iterations 2
smoothSolver:  Solving for Uy, Initial residual = 0.37404284, Final residual = 0.024607349, No Iterations 2
smoothSolver:  Solving for Uz, Initial residual = 0.083068302, Final residual = 0.002870494, No Iterations 3
GAMG:  Solving for p, Initial residual = 0.28776735, Final residual = 0.0020796635, No Iterations 4
time step continuity errors : sum local = 0.0013338912, global = -1.0048183e-05, cumulative = 1.6746337e-05
ExecutionTime = 2.896135 s  ClockTime = 3 s

Time = 11s

smoothSolver:  Solving for Ux, Initial residual = 0.062895914, Final residual = 0.0061557434, No Iterations 2
smoothSolver:  Solving for Uy, Initial residual = 0.20219191, Final residual = 0.012176983, No Iterations 2
smoothSolver:  Solving for Uz, Initial residual = 0.11081189, Final residual = 0.0038344005, No Iterations 3
GAMG:  Solving for p, Initial residual = 0.21976531, Final residual = 0.0016277674, No Iterations 4
time step continuity errors : sum local = 0.0013512776, global = 8.5080928e-06, cumulative = 2.525443e-05
ExecutionTime = 3.112293 s  ClockTime = 4 s

Time = 12s

smoothSolver:  Solving for Ux, Initial residual = 0.03837312, Final residual = 0.0012325964, No Iterations 3
smoothSolver:  Solving for Uy, Initial residual = 0.14933126, Final residual = 0.011719749, No Iterations 2
smoothSolver:  Solving for Uz, Initial residual = 0.06852113, Final residual = 0.002380338, No Iterations 3
GAMG:  Solving for p, Initial residual = 0.16678356, Final residual = 0.0013146664, No Iterations 5
time step continuity errors : sum local = 0.00076732404, global = 3.3673516e-06, cumulative = 2.8621782e-05
ExecutionTime = 3.339846 s  ClockTime = 4 s

Time = 13s

smoothSolver:  Solving for Ux, Initial residual = 0.018960821, Final residual = 0.0015474724, No Iterations 2
smoothSolver:  Solving for Uy, Initial residual = 0.32149845, Final residual = 0.025147936, No Iterations 2
smoothSolver:  Solving for Uz, Initial residual = 0.014171285, Final residual = 0.0012784948, No Iterations 2
GAMG:  Solving for p, Initial residual = 0.34707091, Final residual = 0.0032300484, No Iterations 5
time step continuity errors : sum local = 0.00055822401, global = 2.5988318e-06, cumulative = 3.1220613e-05
ExecutionTime = 3.564835 s  ClockTime = 4 s

Time = 14s

smoothSolver:  Solving for Ux, Initial residual = 0.028912701, Final residual = 0.00268778, No Iterations 2
smoothSolver:  Solving for Uy, Initial residual = 0.3004638, Final residual = 0.021284807, No Iterations 2
smoothSolver:  Solving for Uz, Initial residual = 0.038799765, Final residual = 0.0013120801, No Iterations 3
GAMG:  Solving for p, Initial residual = 0.29391129, Final residual = 0.0016257018, No Iterations 4
time step continuity errors : sum local = 0.00052898393, global = 4.7099341e-06, cumulative = 3.5930548e-05
ExecutionTime = 3.779952 s  ClockTime = 4 s

Time = 15s

smoothSolver:  Solving for Ux, Initial residual = 0.02877881, Final residual = 0.0028099188, No Iterations 2
smoothSolver:  Solving for Uy, Initial residual = 0.15773111, Final residual = 0.010306292, No Iterations 2
smoothSolver:  Solving for Uz, Initial residual = 0.048295598, Final residual = 0.0016410706, No Iterations 3
GAMG:  Solving for p, Initial residual = 0.2286712, Final residual = 0.0020286618, No Iterations 4
time step continuity errors : sum local = 0.00073409014, global = -5.7975254e-06, cumulative = 3.0133022e-05
ExecutionTime = 3.99404 s  ClockTime = 4 s

Time = 16s

smoothSolver:  Solving for Ux, Initial residual = 0.017938035, Final residual = 0.0005556984, No Iterations 3
smoothSolver:  Solving for Uy, Initial residual = 0.14939148, Final residual = 0.012550413, No Iterations 2
smoothSolver:  Solving for Uz, Initial residual = 0.027540781, Final residual = 0.00092735853, No Iterations 3
GAMG:  Solving for p, Initial residual = 0.18286131, Final residual = 0.0016323569, No Iterations 5
time step continuity errors : sum local = 0.00035648494, global = -1.5547273e-06, cumulative = 2.8578295e-05
ExecutionTime = 4.220591 s  ClockTime = 5 s

Time = 17s

smoothSolver:  Solving for Ux, Initial residual = 0.010896892, Final residual = 0.00092045684, No Iterations 2
smoothSolver:  Solving for Uy, Initial residual = 0.25469829, Final residual = 0.020330556, No Iterations 2
smoothSolver:  Solving for Uz, Initial residual = 0.0081934778, Final residual = 0.00077994578, No Iterations 2
GAMG:  Solving for p, Initial residual = 0.30910798, Final residual = 0.002172304, No Iterations 5
time step continuity errors : sum local = 0.00022755213, global = -1.3239197e-06, cumulative = 2.7254375e-05
ExecutionTime = 4.443847 s  ClockTime = 5 s

Time = 18s

smoothSolver:  Solving for Ux, Initial residual = 0.015404687, Final residual = 0.0014933523, No Iterations 2
smoothSolver:  Solving for Uy, Initial residual = 0.20042066, Final residual = 0.014546011, No Iterations 2
smoothSolver:  Solving for Uz, Initial residual = 0.022419993, Final residual = 0.0007860659, No Iterations 3
GAMG:  Solving for p, Initial residual = 0.21102495, Final residual = 0.0010672411, No Iterations 4
time step continuity errors : sum local = 0.00022969641, global = 2.2129907e-07, cumulative = 2.7475674e-05
ExecutionTime = 4.655849 s  ClockTime = 5 s

Time = 19s

smoothSolver:  Solving for Ux, Initial residual = 0.013064099, Final residual = 0.00041541869, No Iterations 3
smoothSolver:  Solving for Uy, Initial residual = 0.10873333, Final residual = 0.0078403755, No Iterations 2
smoothSolver:  Solving for Uz, Initial residual = 0.021954996, Final residual = 0.00077062115, No Iterations 3
GAMG:  Solving for p, Initial residual = 0.16404831, Final residual = 0.00073778596, No Iterations 5
time step continuity errors : sum local = 0.00015758359, global = 6.459993e-07, cumulative = 2.8121673e-05
ExecutionTime = 4.882509 s  ClockTime = 5 s

Time = 20s

smoothSolver:  Solving for Ux, Initial residual = 0.0078776853, Final residual = 0.00025103702, No Iterations 3
smoothSolver:  Solving for Uy, Initial residual = 0.12327368, Final residual = 0.010797701, No Iterations 2
smoothSolver:  Solving for Uz, Initial residual = 0.010437313, Final residual = 0.00036265343, No Iterations 3
GAMG:  Solving for p, Initial residual = 0.11268965, Final residual = 0.00045879333, No Iterations 6
time step continuity errors : sum local = 6.3507836e-05, global = 6.8620863e-07, cumulative = 2.8807882e-05
ExecutionTime = 5.122511 s  ClockTime = 6 s

Time = 21s

smoothSolver:  Solving for Ux, Initial residual = 0.0059148775, Final residual = 0.00051081128, No Iterations 2
smoothSolver:  Solving for Uy, Initial residual = 0.16170112, Final residual = 0.013250891, No Iterations 2
smoothSolver:  Solving for Uz, Initial residual = 0.0051026045, Final residual = 0.00047426369, No Iterations 2
GAMG:  Solving for p, Initial residual = 0.28838368, Final residual = 0.0014513166, No Iterations 5
time step continuity errors : sum local = 8.9708358e-05, global = 5.7330257e-07, cumulative = 2.9381185e-05
ExecutionTime = 5.346337 s  ClockTime = 6 s

Time = 22s

smoothSolver:  Solving for Ux, Initial residual = 0.006884279, Final residual = 0.00064566611, No Iterations 2
smoothSolver:  Solving for Uy, Initial residual = 0.11759927, Final residual = 0.0088835975, No Iterations 2
smoothSolver:  Solving for Uz, Initial residual = 0.010039693, Final residual = 0.00033015168, No Iterations 3
GAMG:  Solving for p, Initial residual = 0.21554349, Final residual = 0.0014601088, No Iterations 4
time step continuity errors : sum local = 0.00014752713, global = -8.4022839e-07, cumulative = 2.8540956e-05
ExecutionTime = 5.561165 s  ClockTime = 6 s

Time = 23s

smoothSolver:  Solving for Ux, Initial residual = 0.0053936394, Final residual = 0.000525984, No Iterations 2
smoothSolver:  Solving for Uy, Initial residual = 0.066873689, Final residual = 0.0052924503, No Iterations 2
smoothSolver:  Solving for Uz, Initial residual = 0.0086368737, Final residual = 0.00028293083, No Iterations 3
GAMG:  Solving for p, Initial residual = 0.16749283, Final residual = 0.00087209257, No Iterations 5
time step continuity errors : sum local = 7.9089595e-05, global = -2.6696995e-07, cumulative = 2.8273986e-05
ExecutionTime = 5.788975 s  ClockTime = 6 s

Time = 24s

smoothSolver:  Solving for Ux, Initial residual = 0.0035628557, Final residual = 0.00033498339, No Iterations 2
smoothSolver:  Solving for Uy, Initial residual = 0.081718287, Final residual = 0.0072577428, No Iterations 2
smoothSolver:  Solving for Uz, Initial residual = 0.0037256464, Final residual = 0.00036532128, No Iterations 2
GAMG:  Solving for p, Initial residual = 0.13719693, Final residual = 0.0013306894, No Iterations 5
time step continuity errors : sum local = 6.9249098e-05, global = -2.7827672e-07, cumulative = 2.799571e-05
ExecutionTime = 6.01451 s  ClockTime = 7 s

Time = 25s

smoothSolver:  Solving for Ux, Initial residual = 0.0039224319, Final residual = 0.00038096153, No Iterations 2
smoothSolver:  Solving for Uy, Initial residual = 0.087703868, Final residual = 0.0073558905, No Iterations 2
smoothSolver:  Solving for Uz, Initial residual = 0.0048476649, Final residual = 0.00016433726, No Iterations 3
GAMG:  Solving for p, Initial residual = 0.10693515, Final residual = 0.0010117696, No Iterations 4
time step continuity errors : sum local = 8.668992e-05, global = -5.3066575e-07, cumulative = 2.7465044e-05
ExecutionTime = 6.226081 s  ClockTime = 7 s

Time = 26s

smoothSolver:  Solving for Ux, Initial residual = 0.0039108395, Final residual = 0.00012347935, No Iterations 3
smoothSolver:  Solving for Uy, Initial residual = 0.059985387, Final residual = 0.004869439, No Iterations 2
smoothSolver:  Solving for Uz, Initial residual = 0.0059653248, Final residual = 0.00020974972, No Iterations 3
GAMG:  Solving for p, Initial residual = 0.097037943, Final residual = 0.0007857994, No Iterations 4
time step continuity errors : sum local = 7.8592516e-05, global = 3.5463777e-07, cumulative = 2.7819682e-05
ExecutionTime = 6.44261 s  ClockTime = 7 s

Time = 27s

smoothSolver:  Solving for Ux, Initial residual = 0.0032138023, Final residual = 0.00010552072, No Iterations 3
smoothSolver:  Solving for Uy, Initial residual = 0.041072132, Final residual = 0.0037343533, No Iterations 2
smoothSolver:  Solving for Uz, Initial residual = 0.0050312082, Final residual = 0.0001744037, No Iterations 3
GAMG:  Solving for p, Initial residual = 0.065904758, Final residual = 0.00041453918, No Iterations 5
time step continuity errors : sum local = 3.8520253e-05, global = 1.238517e-07, cumulative = 2.7943533e-05
ExecutionTime = 6.669407 s  ClockTime = 7 s

Time = 28s

smoothSolver:  Solving for Ux, Initial residual = 0.0027705047, Final residual = 8.6627318e-05, No Iterations 3
smoothSolver:  Solving for Uy, Initial residual = 0.049207034, Final residual = 0.0045459022, No Iterations 2
smoothSolver:  Solving for Uz, Initial residual = 0.0035768491, Final residual = 0.00011683887, No Iterations 3
GAMG:  Solving for p, Initial residual = 0.049638496, Final residual = 0.00040512805, No Iterations 5
time step continuity errors : sum local = 3.0215156e-05, global = 1.4370994e-07, cumulative = 2.8087243e-05
ExecutionTime = 6.899461 s  ClockTime = 7 s

Time = 29s

smoothSolver:  Solving for Ux, Initial residual = 0.0024277494, Final residual = 0.00023502835, No Iterations 2
smoothSolver:  Solving for Uy, Initial residual = 0.047929102, Final residual = 0.0042346874, No Iterations 2
smoothSolver:  Solving for Uz, Initial residual = 0.0028999511, Final residual = 8.9583312e-05, No Iterations 3
GAMG:  Solving for p, Initial residual = 0.085294291, Final residual = 0.00063998667, No Iterations 4
time step continuity errors : sum local = 3.8189504e-05, global = 2.4121603e-07, cumulative = 2.8328459e-05
ExecutionTime = 7.11083 s  ClockTime = 8 s

Time = 30s

smoothSolver:  Solving for Ux, Initial residual = 0.0021139869, Final residual = 0.00020581609, No Iterations 2
smoothSolver:  Solving for Uy, Initial residual = 0.033890483, Final residual = 0.0030218896, No Iterations 2
smoothSolver:  Solving for Uz, Initial residual = 0.0027948391, Final residual = 8.6205519e-05, No Iterations 3
GAMG:  Solving for p, Initial residual = 0.08750905, Final residual = 0.00068783909, No Iterations 4
time step continuity errors : sum local = 3.8031235e-05, global = -2.2853297e-07, cumulative = 2.8099926e-05
ExecutionTime = 7.323803 s  ClockTime = 8 s

Time = 31s

smoothSolver:  Solving for Ux, Initial residual = 0.001985018, Final residual = 6.144119e-05, No Iterations 3
smoothSolver:  Solving for Uy, Initial residual = 0.028003033, Final residual = 0.0027057541, No Iterations 2
smoothSolver:  Solving for Uz, Initial residual = 0.0027156002, Final residual = 8.5860995e-05, No Iterations 3
GAMG:  Solving for p, Initial residual = 0.05206924, Final residual = 0.00029121478, No Iterations 5
time step continuity errors : sum local = 1.7325874e-05, global = -3.4907698e-08, cumulative = 2.8065019e-05
ExecutionTime = 7.548851 s  ClockTime = 8 s

Time = 32s

smoothSolver:  Solving for Ux, Initial residual = 0.0020734869, Final residual = 6.5599354e-05, No Iterations 3
smoothSolver:  Solving for Uy, Initial residual = 0.030998164, Final residual = 0.0029618051, No Iterations 2
smoothSolver:  Solving for Uz, Initial residual = 0.0029178422, Final residual = 9.5645994e-05, No Iterations 3
GAMG:  Solving for p, Initial residual = 0.033834303, Final residual = 0.00017670755, No Iterations 5
time step continuity errors : sum local = 1.197825e-05, global = -4.4298482e-08, cumulative = 2.802072e-05
ExecutionTime = 7.774439 s  ClockTime = 8 s

Time = 33s

smoothSolver:  Solving for Ux, Initial residual = 0.0020850401, Final residual = 6.7193798e-05, No Iterations 3
smoothSolver:  Solving for Uy, Initial residual = 0.028584373, Final residual = 0.0027039647, No Iterations 2
smoothSolver:  Solving for Uz, Initial residual = 0.0031444258, Final residual = 0.00010560175, No Iterations 3
GAMG:  Solving for p, Initial residual = 0.035918851, Final residual = 0.00020249371, No Iterations 4
time step continuity errors : sum local = 1.4977749e-05, global = -1.2551099e-07, cumulative = 2.7895209e-05
ExecutionTime = 7.986872 s  ClockTime = 9 s

Time = 34s

smoothSolver:  Solving for Ux, Initial residual = 0.0019653787, Final residual = 6.4540748e-05, No Iterations 3
smoothSolver:  Solving for Uy, Initial residual = 0.023093333, Final residual = 0.0022784874, No Iterations 2
smoothSolver:  Solving for Uz, Initial residual = 0.0031144232, Final residual = 0.00010496393, No Iterations 3
GAMG:  Solving for p, Initial residual = 0.031129882, Final residual = 0.00026719138, No Iterations 4
time step continuity errors : sum local = 2.0049321e-05, global = 1.3958209e-07, cumulative = 2.8034791e-05
ExecutionTime = 8.199367 s  ClockTime = 9 s

Time = 35s

smoothSolver:  Solving for Ux, Initial residual = 0.0018523416, Final residual = 6.0903745e-05, No Iterations 3
smoothSolver:  Solving for Uy, Initial residual = 0.021717685, Final residual = 0.00069023417, No Iterations 3
smoothSolver:  Solving for Uz, Initial residual = 0.0028866237, Final residual = 9.6338653e-05, No Iterations 3
GAMG:  Solving for p, Initial residual = 0.023709753, Final residual = 0.00011782937, No Iterations 5
time step continuity errors : sum local = 8.5204128e-06, global = 4.0494207e-08, cumulative = 2.8075285e-05
ExecutionTime = 8.427522 s  ClockTime = 9 s

Time = 36s

smoothSolver:  Solving for Ux, Initial residual = 0.0017699429, Final residual = 5.7335123e-05, No Iterations 3
smoothSolver:  Solving for Uy, Initial residual = 0.021997554, Final residual = 0.00068755874, No Iterations 3
smoothSolver:  Solving for Uz, Initial residual = 0.0026418219, Final residual = 8.6935497e-05, No Iterations 3
GAMG:  Solving for p, Initial residual = 0.024988214, Final residual = 0.00020551071, No Iterations 4
time step continuity errors : sum local = 1.4068756e-05, global = 8.2993611e-08, cumulative = 2.8158279e-05
ExecutionTime = 8.64017 s  ClockTime = 9 s

Time = 37s

smoothSolver:  Solving for Ux, Initial residual = 0.0016860522, Final residual = 5.4357322e-05, No Iterations 3
smoothSolver:  Solving for Uy, Initial residual = 0.020146395, Final residual = 0.00063160329, No Iterations 3
smoothSolver:  Solving for Uz, Initial residual = 0.002502523, Final residual = 8.1813626e-05, No Iterations 3
GAMG:  Solving for p, Initial residual = 0.027834898, Final residual = 0.00012578132, No Iterations 4
time step continuity errors : sum local = 8.3230032e-06, global = 6.5217545e-08, cumulative = 2.8223497e-05
ExecutionTime = 8.85408 s  ClockTime = 9 s

Time = 38s

smoothSolver:  Solving for Ux, Initial residual = 0.001624755, Final residual = 5.278225e-05, No Iterations 3
smoothSolver:  Solving for Uy, Initial residual = 0.018079864, Final residual = 0.00058220204, No Iterations 3
smoothSolver:  Solving for Uz, Initial residual = 0.0024470082, Final residual = 8.0252786e-05, No Iterations 3
GAMG:  Solving for p, Initial residual = 0.024875139, Final residual = 0.00014540322, No Iterations 4
time step continuity errors : sum local = 9.6217247e-06, global = -7.52906e-08, cumulative = 2.8148206e-05
ExecutionTime = 9.067973 s  ClockTime = 10 s

Time = 39s

smoothSolver:  Solving for Ux, Initial residual = 0.0016032652, Final residual = 5.2521289e-05, No Iterations 3
smoothSolver:  Solving for Uy, Initial residual = 0.017648773, Final residual = 0.00057238486, No Iterations 3
smoothSolver:  Solving for Uz, Initial residual = 0.0024365048, Final residual = 8.0598614e-05, No Iterations 3
GAMG:  Solving for p, Initial residual = 0.020468792, Final residual = 0.0001310654, No Iterations 4
time step continuity errors : sum local = 8.8669625e-06, global = -8.8187352e-08, cumulative = 2.8060019e-05
ExecutionTime = 9.283219 s  ClockTime = 10 s

Time = 40s

smoothSolver:  Solving for Ux, Initial residual = 0.0015868802, Final residual = 5.2304568e-05, No Iterations 3
smoothSolver:  Solving for Uy, Initial residual = 0.017436596, Final residual = 0.00056367691, No Iterations 3
smoothSolver:  Solving for Uz, Initial residual = 0.002439643, Final residual = 8.143922e-05, No Iterations 3
GAMG:  Solving for p, Initial residual = 0.01891307, Final residual = 9.0209254e-05, No Iterations 4
time step continuity errors : sum local = 6.2594485e-06, global = -4.8190687e-08, cumulative = 2.8011828e-05
ExecutionTime = 9.498006 s  ClockTime = 10 s

Time = 41s

smoothSolver:  Solving for Ux, Initial residual = 0.0015534856, Final residual = 5.1480709e-05, No Iterations 3
smoothSolver:  Solving for Uy, Initial residual = 0.016649164, Final residual = 0.00054252307, No Iterations 3
smoothSolver:  Solving for Uz, Initial residual = 0.002419723, Final residual = 8.1185785e-05, No Iterations 3
GAMG:  Solving for p, Initial residual = 0.018356648, Final residual = 8.7232092e-05, No Iterations 4
time step continuity errors : sum local = 6.1361284e-06, global = 4.0310763e-08, cumulative = 2.8052139e-05
ExecutionTime = 9.713475 s  ClockTime = 10 s

Time = 42s

smoothSolver:  Solving for Ux, Initial residual = 0.0015141521, Final residual = 5.0314669e-05, No Iterations 3
smoothSolver:  Solving for Uy, Initial residual = 0.015922911, Final residual = 0.00052490167, No Iterations 3
smoothSolver:  Solving for Uz, Initial residual = 0.0023658159, Final residual = 7.9414976e-05, No Iterations 3
GAMG:  Solving for p, Initial residual = 0.017305059, Final residual = 9.475108e-05, No Iterations 4
time step continuity errors : sum local = 6.6629489e-06, global = 2.9056358e-08, cumulative = 2.8081195e-05
ExecutionTime = 9.93098 s  ClockTime = 10 s

Time = 43s

smoothSolver:  Solving for Ux, Initial residual = 0.0014783695, Final residual = 4.9069635e-05, No Iterations 3
smoothSolver:  Solving for Uy, Initial residual = 0.015524066, Final residual = 0.00051323275, No Iterations 3
smoothSolver:  Solving for Uz, Initial residual = 0.0022926336, Final residual = 7.6773085e-05, No Iterations 3
GAMG:  Solving for p, Initial residual = 0.016807669, Final residual = 8.9500909e-05, No Iterations 4
time step continuity errors : sum local = 6.2333752e-06, global = 2.6544275e-08, cumulative = 2.8107739e-05
ExecutionTime = 10.14633 s  ClockTime = 11 s

Time = 44s

smoothSolver:  Solving for Ux, Initial residual = 0.0014452886, Final residual = 4.7895484e-05, No Iterations 3
smoothSolver:  Solving for Uy, Initial residual = 0.015097813, Final residual = 0.00049900906, No Iterations 3
smoothSolver:  Solving for Uz, Initial residual = 0.0022249217, Final residual = 7.4348767e-05, No Iterations 3
GAMG:  Solving for p, Initial residual = 0.017040482, Final residual = 7.2879794e-05, No Iterations 4
time step continuity errors : sum local = 5.0258196e-06, global = 2.3758371e-08, cumulative = 2.8131498e-05
ExecutionTime = 10.366684 s  ClockTime = 11 s

Time = 45s

smoothSolver:  Solving for Ux, Initial residual = 0.0014152603, Final residual = 4.6927079e-05, No Iterations 3
smoothSolver:  Solving for Uy, Initial residual = 0.014566875, Final residual = 0.0004827703, No Iterations 3
smoothSolver:  Solving for Uz, Initial residual = 0.0021735328, Final residual = 7.2635643e-05, No Iterations 3
GAMG:  Solving for p, Initial residual = 0.016859732, Final residual = 8.7318186e-05, No Iterations 3
time step continuity errors : sum local = 5.9981929e-06, global = 7.4244564e-08, cumulative = 2.8205742e-05
ExecutionTime = 10.572416 s  ClockTime = 11 s

Time = 46s

smoothSolver:  Solving for Ux, Initial residual = 0.0013907121, Final residual = 4.6223864e-05, No Iterations 3
smoothSolver:  Solving for Uy, Initial residual = 0.014144148, Final residual = 0.0004701275, No Iterations 3
smoothSolver:  Solving for Uz, Initial residual = 0.0021362209, Final residual = 7.1542776e-05, No Iterations 3
GAMG:  Solving for p, Initial residual = 0.016094337, Final residual = 0.00013312696, No Iterations 3
time step continuity errors : sum local = 9.1719927e-06, global = -4.4267185e-08, cumulative = 2.8161475e-05
ExecutionTime = 10.781576 s  ClockTime = 11 s

Time = 47s

smoothSolver:  Solving for Ux, Initial residual = 0.0013688802, Final residual = 4.5605356e-05, No Iterations 3
smoothSolver:  Solving for Uy, Initial residual = 0.013832, Final residual = 0.00046008257, No Iterations 3
smoothSolver:  Solving for Uz, Initial residual = 0.0021048673, Final residual = 7.0684921e-05, No Iterations 3
GAMG:  Solving for p, Initial residual = 0.015401709, Final residual = 0.00013114091, No Iterations 3
time step continuity errors : sum local = 9.0833443e-06, global = -3.7558418e-08, cumulative = 2.8123917e-05
ExecutionTime = 10.987052 s  ClockTime = 12 s

Time = 48s

smoothSolver:  Solving for Ux, Initial residual = 0.0013470416, Final residual = 4.4973444e-05, No Iterations 3
smoothSolver:  Solving for Uy, Initial residual = 0.013517495, Final residual = 0.00044995951, No Iterations 3
smoothSolver:  Solving for Uz, Initial residual = 0.0020750421, Final residual = 6.9863118e-05, No Iterations 3
GAMG:  Solving for p, Initial residual = 0.014914642, Final residual = 7.5685798e-05, No Iterations 3
time step continuity errors : sum local = 5.2706987e-06, global = 2.0837856e-08, cumulative = 2.8144755e-05
ExecutionTime = 11.192446 s  ClockTime = 12 s

Time = 49s

smoothSolver:  Solving for Ux, Initial residual = 0.0013248699, Final residual = 4.4305725e-05, No Iterations 3
smoothSolver:  Solving for Uy, Initial residual = 0.013181197, Final residual = 0.00043954607, No Iterations 3
smoothSolver:  Solving for Uz, Initial residual = 0.0020427762, Final residual = 6.8895865e-05, No Iterations 3
GAMG:  Solving for p, Initial residual = 0.014542, Final residual = 0.00013188072, No Iterations 3
time step continuity errors : sum local = 9.2152385e-06, global = 1.0086484e-07, cumulative = 2.8245619e-05
ExecutionTime = 11.395979 s  ClockTime = 12 s

Time = 50s

smoothSolver:  Solving for Ux, Initial residual = 0.0013032905, Final residual = 4.3626847e-05, No Iterations 3
smoothSolver:  Solving for Uy, Initial residual = 0.012866783, Final residual = 0.00042986269, No Iterations 3
smoothSolver:  Solving for Uz, Initial residual = 0.0020084376, Final residual = 6.7803788e-05, No Iterations 3
GAMG:  Solving for p, Initial residual = 0.014225309, Final residual = 6.3144607e-05, No Iterations 4
time step continuity errors : sum local = 4.4184651e-06, global = 2.631352e-08, cumulative = 2.8271933e-05
ExecutionTime = 11.611014 s  ClockTime = 12 s

Time = 51s

smoothSolver:  Solving for Ux, Initial residual = 0.0012823264, Final residual = 4.2926488e-05, No Iterations 3
smoothSolver:  Solving for Uy, Initial residual = 0.012580568, Final residual = 0.00042071793, No Iterations 3
smoothSolver:  Solving for Uz, Initial residual = 0.0019706187, Final residual = 6.6522632e-05, No Iterations 3
GAMG:  Solving for p, Initial residual = 0.014038317, Final residual = 5.9927024e-05, No Iterations 4
time step continuity errors : sum local = 4.1869081e-06, global = 2.2272746e-08, cumulative = 2.8294206e-05
ExecutionTime = 11.826392 s  ClockTime = 12 s

Time = 52s

smoothSolver:  Solving for Ux, Initial residual = 0.0012625451, Final residual = 4.226743e-05, No Iterations 3
smoothSolver:  Solving for Uy, Initial residual = 0.012305884, Final residual = 0.00041169726, No Iterations 3
smoothSolver:  Solving for Uz, Initial residual = 0.0019339157, Final residual = 6.5284195e-05, No Iterations 3
GAMG:  Solving for p, Initial residual = 0.013889619, Final residual = 0.00013438221, No Iterations 3
time step continuity errors : sum local = 9.3736706e-06, global = 6.6394039e-08, cumulative = 2.83606e-05
ExecutionTime = 12.03217 s  ClockTime = 13 s

Time = 53s

smoothSolver:  Solving for Ux, Initial residual = 0.0012440222, Final residual = 4.1677331e-05, No Iterations 3
smoothSolver:  Solving for Uy, Initial residual = 0.012036308, Final residual = 0.00040289068, No Iterations 3
smoothSolver:  Solving for Uz, Initial residual = 0.0019012087, Final residual = 6.4225696e-05, No Iterations 3
GAMG:  Solving for p, Initial residual = 0.01364006, Final residual = 0.00010743634, No Iterations 3
time step continuity errors : sum local = 7.4961697e-06, global = 5.9178002e-08, cumulative = 2.8419778e-05
ExecutionTime = 12.236605 s  ClockTime = 13 s

Time = 54s

smoothSolver:  Solving for Ux, Initial residual = 0.0012267451, Final residual = 4.1138464e-05, No Iterations 3
smoothSolver:  Solving for Uy, Initial residual = 0.011785334, Final residual = 0.00039459491, No Iterations 3
smoothSolver:  Solving for Uz, Initial residual = 0.0018713771, Final residual = 6.3287909e-05, No Iterations 3
GAMG:  Solving for p, Initial residual = 0.013343504, Final residual = 8.0699211e-05, No Iterations 3
time step continuity errors : sum local = 5.6393322e-06, global = 7.0249201e-08, cumulative = 2.8490027e-05
ExecutionTime = 12.443523 s  ClockTime = 13 s

Time = 55s

smoothSolver:  Solving for Ux, Initial residual = 0.0012103949, Final residual = 4.0630846e-05, No Iterations 3
smoothSolver:  Solving for Uy, Initial residual = 0.011548056, Final residual = 0.0003867513, No Iterations 3
smoothSolver:  Solving for Uz, Initial residual = 0.0018432728, Final residual = 6.2414503e-05, No Iterations 3
GAMG:  Solving for p, Initial residual = 0.013053515, Final residual = 8.826562e-05, No Iterations 3
time step continuity errors : sum local = 6.1809921e-06, global = 8.4034642e-08, cumulative = 2.8574062e-05
ExecutionTime = 12.648625 s  ClockTime = 13 s

Time = 56s

smoothSolver:  Solving for Ux, Initial residual = 0.001194719, Final residual = 4.013981e-05, No Iterations 3
smoothSolver:  Solving for Uy, Initial residual = 0.011319223, Final residual = 0.00037925088, No Iterations 3
smoothSolver:  Solving for Uz, Initial residual = 0.0018159844, Final residual = 6.155946e-05, No Iterations 3
GAMG:  Solving for p, Initial residual = 0.012798708, Final residual = 0.00011206354, No Iterations 3
time step continuity errors : sum local = 7.8628842e-06, global = 8.9523324e-08, cumulative = 2.8663585e-05
ExecutionTime = 12.853303 s  ClockTime = 13 s

Time = 57s

smoothSolver:  Solving for Ux, Initial residual = 0.0011796176, Final residual = 3.9657335e-05, No Iterations 3
smoothSolver:  Solving for Uy, Initial residual = 0.011099088, Final residual = 0.00037203046, No Iterations 3
smoothSolver:  Solving for Uz, Initial residual = 0.0017889969, Final residual = 6.0699616e-05, No Iterations 3
GAMG:  Solving for p, Initial residual = 0.012579524, Final residual = 5.692347e-05, No Iterations 4
time step continuity errors : sum local = 3.9996954e-06, global = 3.687175e-08, cumulative = 2.8700457e-05
ExecutionTime = 13.069206 s  ClockTime = 14 s

Time = 58s

smoothSolver:  Solving for Ux, Initial residual = 0.0011651065, Final residual = 3.9179297e-05, No Iterations 3
smoothSolver:  Solving for Uy, Initial residual = 0.010890389, Final residual = 0.00036516796, No Iterations 3
smoothSolver:  Solving for Uz, Initial residual = 0.001761745, Final residual = 5.9806779e-05, No Iterations 3
GAMG:  Solving for p, Initial residual = 0.012408889, Final residual = 0.0001197697, No Iterations 3
time step continuity errors : sum local = 8.4191212e-06, global = 7.6774171e-08, cumulative = 2.8777231e-05
ExecutionTime = 13.276398 s  ClockTime = 14 s

Time = 59s

smoothSolver:  Solving for Ux, Initial residual = 0.0011512666, Final residual = 3.8732205e-05, No Iterations 3
smoothSolver:  Solving for Uy, Initial residual = 0.010686724, Final residual = 0.00035846104, No Iterations 3
smoothSolver:  Solving for Uz, Initial residual = 0.001735636, Final residual = 5.8966043e-05, No Iterations 3
GAMG:  Solving for p, Initial residual = 0.012213653, Final residual = 0.00011625606, No Iterations 3
time step continuity errors : sum local = 8.1795141e-06, global = 7.0784494e-08, cumulative = 2.8848015e-05
ExecutionTime = 13.478474 s  ClockTime = 14 s

Time = 60s

smoothSolver:  Solving for Ux, Initial residual = 0.001138213, Final residual = 3.8310563e-05, No Iterations 3
smoothSolver:  Solving for Uy, Initial residual = 0.010490789, Final residual = 0.0003520242, No Iterations 3
smoothSolver:  Solving for Uz, Initial residual = 0.0017102856, Final residual = 5.8148725e-05, No Iterations 3
GAMG:  Solving for p, Initial residual = 0.012021491, Final residual = 0.00011139858, No Iterations 3
time step continuity errors : sum local = 7.8452797e-06, global = 6.6965351e-08, cumulative = 2.8914981e-05
ExecutionTime = 13.683396 s  ClockTime = 14 s

Time = 61s

smoothSolver:  Solving for Ux, Initial residual = 0.0011259678, Final residual = 3.7915598e-05, No Iterations 3
smoothSolver:  Solving for Uy, Initial residual = 0.010303585, Final residual = 0.00034586944, No Iterations 3
smoothSolver:  Solving for Uz, Initial residual = 0.0016857519, Final residual = 5.7358928e-05, No Iterations 3
GAMG:  Solving for p, Initial residual = 0.011834191, Final residual = 0.00010662663, No Iterations 3
time step continuity errors : sum local = 7.5172645e-06, global = 6.731162e-08, cumulative = 2.8982292e-05
ExecutionTime = 13.885334 s  ClockTime = 14 s

Time = 62s

smoothSolver:  Solving for Ux, Initial residual = 0.0011144462, Final residual = 3.7544478e-05, No Iterations 3
smoothSolver:  Solving for Uy, Initial residual = 0.010125517, Final residual = 0.00034004565, No Iterations 3
smoothSolver:  Solving for Uz, Initial residual = 0.001662046, Final residual = 5.6596879e-05, No Iterations 3
GAMG:  Solving for p, Initial residual = 0.011658005, Final residual = 0.00010418814, No Iterations 3
time step continuity errors : sum local = 7.3539347e-06, global = 6.9222338e-08, cumulative = 2.9051515e-05
ExecutionTime = 14.089911 s  ClockTime = 15 s

Time = 63s

smoothSolver:  Solving for Ux, Initial residual = 0.0011035384, Final residual = 3.7193104e-05, No Iterations 3
smoothSolver:  Solving for Uy, Initial residual = 0.0099548463, Final residual = 0.00033446135, No Iterations 3
smoothSolver:  Solving for Uz, Initial residual = 0.0016391004, Final residual = 5.5858369e-05, No Iterations 3
GAMG:  Solving for p, Initial residual = 0.011490097, Final residual = 0.0001039473, No Iterations 3
time step continuity errors : sum local = 7.3457135e-06, global = 7.254085e-08, cumulative = 2.9124055e-05
ExecutionTime = 14.291839 s  ClockTime = 15 s

Time = 64s

smoothSolver:  Solving for Ux, Initial residual = 0.0010931768, Final residual = 3.685748e-05, No Iterations 3
smoothSolver:  Solving for Uy, Initial residual = 0.0097896839, Final residual = 0.00032908083, No Iterations 3
smoothSolver:  Solving for Uz, Initial residual = 0.0016168236, Final residual = 5.5139465e-05, No Iterations 3
GAMG:  Solving for p, Initial residual = 0.011328581, Final residual = 0.00010419211, No Iterations 3
time step continuity errors : sum local = 7.3715615e-06, global = 7.4878509e-08, cumulative = 2.9198934e-05
ExecutionTime = 14.496265 s  ClockTime = 15 s

Time = 65s

smoothSolver:  Solving for Ux, Initial residual = 0.0010832754, Final residual = 3.6536277e-05, No Iterations 3
smoothSolver:  Solving for Uy, Initial residual = 0.0096298494, Final residual = 0.00032388693, No Iterations 3
smoothSolver:  Solving for Uz, Initial residual = 0.0015951681, Final residual = 5.4438306e-05, No Iterations 3
GAMG:  Solving for p, Initial residual = 0.011173112, Final residual = 0.00010355218, No Iterations 3
time step continuity errors : sum local = 7.3343643e-06, global = 7.5470026e-08, cumulative = 2.9274404e-05
ExecutionTime = 14.699056 s  ClockTime = 15 s

Time = 66s

smoothSolver:  Solving for Ux, Initial residual = 0.0010737861, Final residual = 3.6227553e-05, No Iterations 3
smoothSolver:  Solving for Uy, Initial residual = 0.009474937, Final residual = 0.0003188483, No Iterations 3
smoothSolver:  Solving for Uz, Initial residual = 0.001574089, Final residual = 5.3753796e-05, No Iterations 3
GAMG:  Solving for p, Initial residual = 0.011024046, Final residual = 0.00010174247, No Iterations 3
time step continuity errors : sum local = 7.2137927e-06, global = 7.4642413e-08, cumulative = 2.9349046e-05
ExecutionTime = 14.901358 s  ClockTime = 15 s

Time = 67s

smoothSolver:  Solving for Ux, Initial residual = 0.0010647229, Final residual = 3.5931833e-05, No Iterations 3
smoothSolver:  Solving for Uy, Initial residual = 0.0093251594, Final residual = 0.00031400767, No Iterations 3
smoothSolver:  Solving for Uz, Initial residual = 0.0015535466, Final residual = 5.3085325e-05, No Iterations 3
GAMG:  Solving for p, Initial residual = 0.010877821, Final residual = 9.9202257e-05, No Iterations 3
time step continuity errors : sum local = 7.0410527e-06, global = 7.3395041e-08, cumulative = 2.9422441e-05
ExecutionTime = 15.105836 s  ClockTime = 16 s

Time = 68s

smoothSolver:  Solving for Ux, Initial residual = 0.0010560962, Final residual = 3.565131e-05, No Iterations 3
smoothSolver:  Solving for Uy, Initial residual = 0.009181086, Final residual = 0.00030932532, No Iterations 3
smoothSolver:  Solving for Uz, Initial residual = 0.0015335186, Final residual = 5.2433152e-05, No Iterations 3
GAMG:  Solving for p, Initial residual = 0.010731846, Final residual = 9.6480826e-05, No Iterations 3
time step continuity errors : sum local = 6.855179e-06, global = 7.1643415e-08, cumulative = 2.9494085e-05
ExecutionTime = 15.307408 s  ClockTime = 16 s

Time = 69s

smoothSolver:  Solving for Ux, Initial residual = 0.0010479084, Final residual = 3.5385509e-05, No Iterations 3
smoothSolver:  Solving for Uy, Initial residual = 0.0090426563, Final residual = 0.00030480801, No Iterations 3
smoothSolver:  Solving for Uz, Initial residual = 0.0015139839, Final residual = 5.1797391e-05, No Iterations 3
GAMG:  Solving for p, Initial residual = 0.01059287, Final residual = 9.413616e-05, No Iterations 3
time step continuity errors : sum local = 6.6958735e-06, global = 7.0290581e-08, cumulative = 2.9564375e-05
ExecutionTime = 15.510945 s  ClockTime = 16 s

Time = 70s

smoothSolver:  Solving for Ux, Initial residual = 0.0010401199, Final residual = 3.5132845e-05, No Iterations 3
smoothSolver:  Solving for Uy, Initial residual = 0.0089093031, Final residual = 0.00030044747, No Iterations 3
smoothSolver:  Solving for Uz, Initial residual = 0.0014949385, Final residual = 5.1176406e-05, No Iterations 3
GAMG:  Solving for p, Initial residual = 0.010459751, Final residual = 9.2524094e-05, No Iterations 3
time step continuity errors : sum local = 6.5884886e-06, global = 6.9622035e-08, cumulative = 2.9633997e-05
ExecutionTime = 15.722142 s  ClockTime = 16 s

Time = 71s

smoothSolver:  Solving for Ux, Initial residual = 0.0010326749, Final residual = 3.4891957e-05, No Iterations 3
smoothSolver:  Solving for Uy, Initial residual = 0.008780792, Final residual = 0.0002962579, No Iterations 3
smoothSolver:  Solving for Uz, Initial residual = 0.001476391, Final residual = 5.0570828e-05, No Iterations 3
GAMG:  Solving for p, Initial residual = 0.010331633, Final residual = 9.1523535e-05, No Iterations 3
time step continuity errors : sum local = 6.524485e-06, global = 6.9811587e-08, cumulative = 2.9703809e-05
ExecutionTime = 15.937828 s  ClockTime = 17 s

Time = 72s

smoothSolver:  Solving for Ux, Initial residual = 0.0010255382, Final residual = 3.4660515e-05, No Iterations 3
smoothSolver:  Solving for Uy, Initial residual = 0.0086571748, Final residual = 0.00029222125, No Iterations 3
smoothSolver:  Solving for Uz, Initial residual = 0.0014583144, Final residual = 4.9981203e-05, No Iterations 3
GAMG:  Solving for p, Initial residual = 0.010204181, Final residual = 9.0720798e-05, No Iterations 3
time step continuity errors : sum local = 6.4743744e-06, global = 7.0208051e-08, cumulative = 2.9774017e-05
ExecutionTime = 16.139541 s  ClockTime = 17 s

Time = 73s

smoothSolver:  Solving for Ux, Initial residual = 0.0010186853, Final residual = 3.4437125e-05, No Iterations 3
smoothSolver:  Solving for Uy, Initial residual = 0.0085382543, Final residual = 0.00028833229, No Iterations 3
smoothSolver:  Solving for Uz, Initial residual = 0.0014407101, Final residual = 4.9407433e-05, No Iterations 3
GAMG:  Solving for p, Initial residual = 0.010078823, Final residual = 8.9776616e-05, No Iterations 3
time step continuity errors : sum local = 6.4139361e-06, global = 7.0502859e-08, cumulative = 2.984452e-05
ExecutionTime = 16.344575 s  ClockTime = 17 s

Time = 74s

smoothSolver:  Solving for Ux, Initial residual = 0.0010120854, Final residual = 3.4220585e-05, No Iterations 3
smoothSolver:  Solving for Uy, Initial residual = 0.0084230028, Final residual = 0.00028457277, No Iterations 3
smoothSolver:  Solving for Uz, Initial residual = 0.0014235481, Final residual = 4.8848392e-05, No Iterations 3
GAMG:  Solving for p, Initial residual = 0.0099571244, Final residual = 8.8511371e-05, No Iterations 3
time step continuity errors : sum local = 6.3303242e-06, global = 7.0776433e-08, cumulative = 2.9915296e-05
ExecutionTime = 16.54987 s  ClockTime = 17 s

Time = 75s

smoothSolver:  Solving for Ux, Initial residual = 0.001005718, Final residual = 3.4011057e-05, No Iterations 3
smoothSolver:  Solving for Uy, Initial residual = 0.0083110312, Final residual = 0.00028091414, No Iterations 3
smoothSolver:  Solving for Uz, Initial residual = 0.0014068099, Final residual = 4.8302761e-05, No Iterations 3
GAMG:  Solving for p, Initial residual = 0.0098375441, Final residual = 8.7034232e-05, No Iterations 3
time step continuity errors : sum local = 6.2313053e-06, global = 7.0906157e-08, cumulative = 2.9986203e-05
ExecutionTime = 16.75573 s  ClockTime = 17 s

Time = 76s

smoothSolver:  Solving for Ux, Initial residual = 0.00099958454, Final residual = 3.3808734e-05, No Iterations 3
smoothSolver:  Solving for Uy, Initial residual = 0.0082020557, Final residual = 0.00027735934, No Iterations 3
smoothSolver:  Solving for Uz, Initial residual = 0.0013904755, Final residual = 4.7769197e-05, No Iterations 3
GAMG:  Solving for p, Initial residual = 0.0097241078, Final residual = 8.5558897e-05, No Iterations 3
time step continuity errors : sum local = 6.1321686e-06, global = 7.0953636e-08, cumulative = 3.0057156e-05
ExecutionTime = 16.958772 s  ClockTime = 18 s

Time = 77s

smoothSolver:  Solving for Ux, Initial residual = 0.00099369506, Final residual = 3.3613624e-05, No Iterations 3
smoothSolver:  Solving for Uy, Initial residual = 0.0080958649, Final residual = 0.00027388421, No Iterations 3
smoothSolver:  Solving for Uz, Initial residual = 0.0013745246, Final residual = 4.724647e-05, No Iterations 3
GAMG:  Solving for p, Initial residual = 0.0096147743, Final residual = 8.4279412e-05, No Iterations 3
time step continuity errors : sum local = 6.0468794e-06, global = 7.0940528e-08, cumulative = 3.0128097e-05
ExecutionTime = 17.163891 s  ClockTime = 18 s

Time = 78s

smoothSolver:  Solving for Ux, Initial residual = 0.00098803859, Final residual = 3.3425625e-05, No Iterations 3
smoothSolver:  Solving for Uy, Initial residual = 0.0079926266, Final residual = 0.00027051358, No Iterations 3
smoothSolver:  Solving for Uz, Initial residual = 0.001358958, Final residual = 4.673503e-05, No Iterations 3
GAMG:  Solving for p, Initial residual = 0.0095108913, Final residual = 8.3310446e-05, No Iterations 3
time step continuity errors : sum local = 5.9837101e-06, global = 7.0779943e-08, cumulative = 3.0198877e-05
ExecutionTime = 17.36814 s  ClockTime = 18 s

Time = 79s

smoothSolver:  Solving for Ux, Initial residual = 0.00098260764, Final residual = 3.3245359e-05, No Iterations 3
smoothSolver:  Solving for Uy, Initial residual = 0.0078925849, Final residual = 0.00026725597, No Iterations 3
smoothSolver:  Solving for Uz, Initial residual = 0.0013437614, Final residual = 4.6234693e-05, No Iterations 3
GAMG:  Solving for p, Initial residual = 0.0094080011, Final residual = 8.2620102e-05, No Iterations 3
time step continuity errors : sum local = 5.9403924e-06, global = 7.0479641e-08, cumulative = 3.0269356e-05
ExecutionTime = 17.571579 s  ClockTime = 18 s

Time = 80s

smoothSolver:  Solving for Ux, Initial residual = 0.00097740068, Final residual = 3.307261e-05, No Iterations 3
smoothSolver:  Solving for Uy, Initial residual = 0.0077957859, Final residual = 0.00026410026, No Iterations 3
smoothSolver:  Solving for Uz, Initial residual = 0.0013289228, Final residual = 4.5745739e-05, No Iterations 3
GAMG:  Solving for p, Initial residual = 0.0093079207, Final residual = 8.1948514e-05, No Iterations 3
time step continuity errors : sum local = 5.8982783e-06, global = 7.0220974e-08, cumulative = 3.0339577e-05
ExecutionTime = 17.775103 s  ClockTime = 18 s

Time = 81s

smoothSolver:  Solving for Ux, Initial residual = 0.00097238927, Final residual = 3.2906715e-05, No Iterations 3
smoothSolver:  Solving for Uy, Initial residual = 0.0077017663, Final residual = 0.0002610302, No Iterations 3
smoothSolver:  Solving for Uz, Initial residual = 0.0013144229, Final residual = 4.5267758e-05, No Iterations 3
GAMG:  Solving for p, Initial residual = 0.0092123898, Final residual = 8.1115e-05, No Iterations 3
time step continuity errors : sum local = 5.8443923e-06, global = 6.9947846e-08, cumulative = 3.0409525e-05
ExecutionTime = 17.978831 s  ClockTime = 19 s

Time = 82s

smoothSolver:  Solving for Ux, Initial residual = 0.00096755627, Final residual = 3.2747175e-05, No Iterations 3
smoothSolver:  Solving for Uy, Initial residual = 0.0076105617, Final residual = 0.00025804705, No Iterations 3
smoothSolver:  Solving for Uz, Initial residual = 0.0013002606, Final residual = 4.4800542e-05, No Iterations 3
GAMG:  Solving for p, Initial residual = 0.0091209955, Final residual = 8.0075345e-05, No Iterations 3
time step continuity errors : sum local = 5.7755173e-06, global = 6.9611964e-08, cumulative = 3.0479137e-05
ExecutionTime = 18.183626 s  ClockTime = 19 s

Time = 83s

smoothSolver:  Solving for Ux, Initial residual = 0.00096288487, Final residual = 3.2592733e-05, No Iterations 3
smoothSolver:  Solving for Uy, Initial residual = 0.0075210228, Final residual = 0.00025514385, No Iterations 3
smoothSolver:  Solving for Uz, Initial residual = 0.0012864089, Final residual = 4.4343728e-05, No Iterations 3
GAMG:  Solving for p, Initial residual = 0.009028572, Final residual = 7.8877967e-05, No Iterations 3
time step continuity errors : sum local = 5.6950908e-06, global = 6.9206384e-08, cumulative = 3.0548343e-05
ExecutionTime = 18.389593 s  ClockTime = 19 s

Time = 84s

smoothSolver:  Solving for Ux, Initial residual = 0.00095836849, Final residual = 3.2443413e-05, No Iterations 3
smoothSolver:  Solving for Uy, Initial residual = 0.0074330306, Final residual = 0.00025231447, No Iterations 3
smoothSolver:  Solving for Uz, Initial residual = 0.0012728429, Final residual = 4.3896634e-05, No Iterations 3
GAMG:  Solving for p, Initial residual = 0.0089362428, Final residual = 7.7652389e-05, No Iterations 3
time step continuity errors : sum local = 5.6124615e-06, global = 6.8749649e-08, cumulative = 3.0617093e-05
ExecutionTime = 18.595074 s  ClockTime = 19 s

Time = 85s

smoothSolver:  Solving for Ux, Initial residual = 0.00095399466, Final residual = 3.2299612e-05, No Iterations 3
smoothSolver:  Solving for Uy, Initial residual = 0.007346084, Final residual = 0.00024953159, No Iterations 3
smoothSolver:  Solving for Uz, Initial residual = 0.0012595578, Final residual = 4.3458705e-05, No Iterations 3
GAMG:  Solving for p, Initial residual = 0.0088471256, Final residual = 7.6547131e-05, No Iterations 3
time step continuity errors : sum local = 5.5383626e-06, global = 6.8287249e-08, cumulative = 3.068538e-05
ExecutionTime = 18.801765 s  ClockTime = 19 s

Time = 86s

smoothSolver:  Solving for Ux, Initial residual = 0.00094975254, Final residual = 3.2161364e-05, No Iterations 3
smoothSolver:  Solving for Uy, Initial residual = 0.0072602721, Final residual = 0.00024678922, No Iterations 3
smoothSolver:  Solving for Uz, Initial residual = 0.0012465498, Final residual = 4.302987e-05, No Iterations 3
GAMG:  Solving for p, Initial residual = 0.0087609206, Final residual = 7.5607622e-05, No Iterations 3
time step continuity errors : sum local = 5.4760943e-06, global = 6.7812212e-08, cumulative = 3.0753193e-05
ExecutionTime = 19.006686 s  ClockTime = 20 s

Time = 87s

smoothSolver:  Solving for Ux, Initial residual = 0.00094563197, Final residual = 3.2027809e-05, No Iterations 3
smoothSolver:  Solving for Uy, Initial residual = 0.0071754755, Final residual = 0.00024409537, No Iterations 3
smoothSolver:  Solving for Uz, Initial residual = 0.0012338243, Final residual = 4.2609827e-05, No Iterations 3
GAMG:  Solving for p, Initial residual = 0.0086753447, Final residual = 7.4794904e-05, No Iterations 3
time step continuity errors : sum local = 5.4228429e-06, global = 6.73058e-08, cumulative = 3.0820498e-05
ExecutionTime = 19.213373 s  ClockTime = 20 s

Time = 88s

smoothSolver:  Solving for Ux, Initial residual = 0.00094164361, Final residual = 3.1898912e-05, No Iterations 3
smoothSolver:  Solving for Uy, Initial residual = 0.007091865, Final residual = 0.00024146253, No Iterations 3
smoothSolver:  Solving for Uz, Initial residual = 0.0012213612, Final residual = 4.2198776e-05, No Iterations 3
GAMG:  Solving for p, Initial residual = 0.0085932271, Final residual = 7.4021072e-05, No Iterations 3
time step continuity errors : sum local = 5.3722573e-06, global = 6.6795283e-08, cumulative = 3.0887294e-05
ExecutionTime = 19.417798 s  ClockTime = 20 s

Time = 89s

smoothSolver:  Solving for Ux, Initial residual = 0.00093778059, Final residual = 3.177456e-05, No Iterations 3
smoothSolver:  Solving for Uy, Initial residual = 0.0070102863, Final residual = 0.0002389002, No Iterations 3
smoothSolver:  Solving for Uz, Initial residual = 0.0012091565, Final residual = 4.179588e-05, No Iterations 3
GAMG:  Solving for p, Initial residual = 0.0085142221, Final residual = 7.3205115e-05, No Iterations 3
time step continuity errors : sum local = 5.3184403e-06, global = 6.6322983e-08, cumulative = 3.0953617e-05
ExecutionTime = 19.622658 s  ClockTime = 20 s

Time = 90s

smoothSolver:  Solving for Ux, Initial residual = 0.00093403457, Final residual = 3.1654528e-05, No Iterations 3
smoothSolver:  Solving for Uy, Initial residual = 0.0069310504, Final residual = 0.00023639283, No Iterations 3
smoothSolver:  Solving for Uz, Initial residual = 0.0011972059, Final residual = 4.1400784e-05, No Iterations 3
GAMG:  Solving for p, Initial residual = 0.0084350833, Final residual = 7.233068e-05, No Iterations 3
time step continuity errors : sum local = 5.2602113e-06, global = 6.5819453e-08, cumulative = 3.1019436e-05
ExecutionTime = 19.830305 s  ClockTime = 20 s

Time = 91s

smoothSolver:  Solving for Ux, Initial residual = 0.00093039444, Final residual = 3.1538973e-05, No Iterations 3
smoothSolver:  Solving for Uy, Initial residual = 0.0068535226, Final residual = 0.00023393215, No Iterations 3
smoothSolver:  Solving for Uz, Initial residual = 0.0011855001, Final residual = 4.1014554e-05, No Iterations 3
GAMG:  Solving for p, Initial residual = 0.0083573625, Final residual = 7.1451515e-05, No Iterations 3
time step continuity errors : sum local = 5.2014763e-06, global = 6.5322174e-08, cumulative = 3.1084758e-05
ExecutionTime = 20.035595 s  ClockTime = 21 s

Time = 92s

smoothSolver:  Solving for Ux, Initial residual = 0.00092684981, Final residual = 3.1426138e-05, No Iterations 3
smoothSolver:  Solving for Uy, Initial residual = 0.0067770031, Final residual = 0.00023149044, No Iterations 3
smoothSolver:  Solving for Uz, Initial residual = 0.0011740249, Final residual = 4.0635758e-05, No Iterations 3
GAMG:  Solving for p, Initial residual = 0.0082832246, Final residual = 7.0642036e-05, No Iterations 3
time step continuity errors : sum local = 5.1476461e-06, global = 6.4819313e-08, cumulative = 3.1149578e-05
ExecutionTime = 20.236507 s  ClockTime = 21 s

Time = 93s

smoothSolver:  Solving for Ux, Initial residual = 0.00092339076, Final residual = 3.1315835e-05, No Iterations 3
smoothSolver:  Solving for Uy, Initial residual = 0.006701453, Final residual = 0.00022906625, No Iterations 3
smoothSolver:  Solving for Uz, Initial residual = 0.0011627698, Final residual = 4.0263905e-05, No Iterations 3
GAMG:  Solving for p, Initial residual = 0.0082139232, Final residual = 6.9933491e-05, No Iterations 3
time step continuity errors : sum local = 5.1010387e-06, global = 6.4381812e-08, cumulative = 3.1213959e-05
ExecutionTime = 20.442367 s  ClockTime = 21 s

Time = 94s

smoothSolver:  Solving for Ux, Initial residual = 0.00092002275, Final residual = 3.1208448e-05, No Iterations 3
smoothSolver:  Solving for Uy, Initial residual = 0.0066270181, Final residual = 0.0002266667, No Iterations 3
smoothSolver:  Solving for Uz, Initial residual = 0.0011517351, Final residual = 3.9898433e-05, No Iterations 3
GAMG:  Solving for p, Initial residual = 0.0081484912, Final residual = 6.9317697e-05, No Iterations 3
time step continuity errors : sum local = 5.0610949e-06, global = 6.3980148e-08, cumulative = 3.127794e-05
ExecutionTime = 20.647198 s  ClockTime = 21 s

Time = 95s

smoothSolver:  Solving for Ux, Initial residual = 0.00091673692, Final residual = 3.1103944e-05, No Iterations 3
smoothSolver:  Solving for Uy, Initial residual = 0.0065537564, Final residual = 0.00022429255, No Iterations 3
smoothSolver:  Solving for Uz, Initial residual = 0.0011409145, Final residual = 3.9540043e-05, No Iterations 3
GAMG:  Solving for p, Initial residual = 0.008085884, Final residual = 6.8751154e-05, No Iterations 3
time step continuity errors : sum local = 5.0246591e-06, global = 6.3494924e-08, cumulative = 3.1341434e-05
ExecutionTime = 20.850892 s  ClockTime = 21 s

Time = 96s

smoothSolver:  Solving for Ux, Initial residual = 0.00091352582, Final residual = 3.1002962e-05, No Iterations 3
smoothSolver:  Solving for Uy, Initial residual = 0.0064819722, Final residual = 0.00022195162, No Iterations 3
smoothSolver:  Solving for Uz, Initial residual = 0.0011303019, Final residual = 3.9189012e-05, No Iterations 3
GAMG:  Solving for p, Initial residual = 0.0080224656, Final residual = 6.815212e-05, No Iterations 3
time step continuity errors : sum local = 4.9857488e-06, global = 6.2934783e-08, cumulative = 3.1404369e-05
ExecutionTime = 21.053513 s  ClockTime = 22 s

Time = 97s

smoothSolver:  Solving for Ux, Initial residual = 0.00091038451, Final residual = 3.0904562e-05, No Iterations 3
smoothSolver:  Solving for Uy, Initial residual = 0.0064115491, Final residual = 0.00021964724, No Iterations 3
smoothSolver:  Solving for Uz, Initial residual = 0.001119895, Final residual = 3.8845198e-05, No Iterations 3
GAMG:  Solving for p, Initial residual = 0.0079609212, Final residual = 6.7491796e-05, No Iterations 3
time step continuity errors : sum local = 4.9422396e-06, global = 6.2310398e-08, cumulative = 3.146668e-05
ExecutionTime = 21.259379 s  ClockTime = 22 s

Time = 98s

smoothSolver:  Solving for Ux, Initial residual = 0.00090730554, Final residual = 3.0809245e-05, No Iterations 3
smoothSolver:  Solving for Uy, Initial residual = 0.0063423134, Final residual = 0.00021736829, No Iterations 3
smoothSolver:  Solving for Uz, Initial residual = 0.001109676, Final residual = 3.8507482e-05, No Iterations 3
GAMG:  Solving for p, Initial residual = 0.0078980765, Final residual = 6.6752842e-05, No Iterations 3
time step continuity errors : sum local = 4.8928673e-06, global = 6.1661327e-08, cumulative = 3.1528341e-05
ExecutionTime = 21.461008 s  ClockTime = 22 s

Time = 99s

smoothSolver:  Solving for Ux, Initial residual = 0.00090428205, Final residual = 3.0716046e-05, No Iterations 3
smoothSolver:  Solving for Uy, Initial residual = 0.0062739987, Final residual = 0.00021511429, No Iterations 3
smoothSolver:  Solving for Uz, Initial residual = 0.0010996414, Final residual = 3.8175423e-05, No Iterations 3
GAMG:  Solving for p, Initial residual = 0.0078340443, Final residual = 6.5967449e-05, No Iterations 3
time step continuity errors : sum local = 4.8400027e-06, global = 6.1065023e-08, cumulative = 3.1589406e-05
ExecutionTime = 21.667839 s  ClockTime = 22 s

Time = 100s

smoothSolver:  Solving for Ux, Initial residual = 0.00090129772, Final residual = 3.0625372e-05, No Iterations 3
smoothSolver:  Solving for Uy, Initial residual = 0.0062063054, Final residual = 0.00021287424, No Iterations 3
smoothSolver:  Solving for Uz, Initial residual = 0.0010897757, Final residual = 3.7849353e-05, No Iterations 3
GAMG:  Solving for p, Initial residual = 0.0077690962, Final residual = 6.5193768e-05, No Iterations 3
time step continuity errors : sum local = 4.7879052e-06, global = 6.0487751e-08, cumulative = 3.1649894e-05
ExecutionTime = 21.877355 s  ClockTime = 23 s

Time = 101s

smoothSolver:  Solving for Ux, Initial residual = 0.00089836107, Final residual = 3.0536713e-05, No Iterations 3
smoothSolver:  Solving for Uy, Initial residual = 0.0061389261, Final residual = 0.00021064695, No Iterations 3
smoothSolver:  Solving for Uz, Initial residual = 0.0010800821, Final residual = 3.752869e-05, No Iterations 3
GAMG:  Solving for p, Initial residual = 0.0077050345, Final residual = 6.4449484e-05, No Iterations 3
time step continuity errors : sum local = 4.7378681e-06, global = 5.9937402e-08, cumulative = 3.1709831e-05
ExecutionTime = 22.083922 s  ClockTime = 23 s

Time = 102s

smoothSolver:  Solving for Ux, Initial residual = 0.00089548675, Final residual = 3.0449302e-05, No Iterations 3
smoothSolver:  Solving for Uy, Initial residual = 0.0060720278, Final residual = 0.00020843368, No Iterations 3
smoothSolver:  Solving for Uz, Initial residual = 0.0010705558, Final residual = 3.7212988e-05, No Iterations 3
GAMG:  Solving for p, Initial residual = 0.0076424043, Final residual = 6.3735478e-05, No Iterations 3
time step continuity errors : sum local = 4.6899556e-06, global = 5.9335179e-08, cumulative = 3.1769166e-05
ExecutionTime = 22.290679 s  ClockTime = 23 s

Time = 103s

smoothSolver:  Solving for Ux, Initial residual = 0.00089266468, Final residual = 3.0362927e-05, No Iterations 3
smoothSolver:  Solving for Uy, Initial residual = 0.0060059181, Final residual = 0.00020622728, No Iterations 3
smoothSolver:  Solving for Uz, Initial residual = 0.0010611829, Final residual = 3.6903092e-05, No Iterations 3
GAMG:  Solving for p, Initial residual = 0.0075789407, Final residual = 6.3069263e-05, No Iterations 3
time step continuity errors : sum local = 4.6454525e-06, global = 5.8732225e-08, cumulative = 3.1827899e-05
ExecutionTime = 22.495507 s  ClockTime = 23 s

Time = 104s

smoothSolver:  Solving for Ux, Initial residual = 0.00088988253, Final residual = 3.0277995e-05, No Iterations 3
smoothSolver:  Solving for Uy, Initial residual = 0.0059405625, Final residual = 0.00020403533, No Iterations 3
smoothSolver:  Solving for Uz, Initial residual = 0.0010519679, Final residual = 3.6598958e-05, No Iterations 3
GAMG:  Solving for p, Initial residual = 0.0075142314, Final residual = 6.2424137e-05, No Iterations 3
time step continuity errors : sum local = 4.6024094e-06, global = 5.8129931e-08, cumulative = 3.1886029e-05
ExecutionTime = 22.701746 s  ClockTime = 23 s

Time = 105s

smoothSolver:  Solving for Ux, Initial residual = 0.00088714125, Final residual = 3.0194758e-05, No Iterations 3
smoothSolver:  Solving for Uy, Initial residual = 0.0058759867, Final residual = 0.00020185608, No Iterations 3
smoothSolver:  Solving for Uz, Initial residual = 0.0010429114, Final residual = 3.6300077e-05, No Iterations 3
GAMG:  Solving for p, Initial residual = 0.0074533763, Final residual = 6.1778087e-05, No Iterations 3
time step continuity errors : sum local = 4.5592146e-06, global = 5.7677032e-08, cumulative = 3.1943706e-05
ExecutionTime = 22.906459 s  ClockTime = 24 s

Time = 106s

smoothSolver:  Solving for Ux, Initial residual = 0.00088442875, Final residual = 3.0112871e-05, No Iterations 3
smoothSolver:  Solving for Uy, Initial residual = 0.0058124015, Final residual = 0.000199689, No Iterations 3
smoothSolver:  Solving for Uz, Initial residual = 0.0010340054, Final residual = 3.6006451e-05, No Iterations 3
GAMG:  Solving for p, Initial residual = 0.0073966768, Final residual = 6.1159897e-05, No Iterations 3
time step continuity errors : sum local = 4.5179851e-06, global = 5.7279615e-08, cumulative = 3.2000985e-05
ExecutionTime = 23.109378 s  ClockTime = 24 s

Time = 107s

smoothSolver:  Solving for Ux, Initial residual = 0.00088174723, Final residual = 3.0031876e-05, No Iterations 3
smoothSolver:  Solving for Uy, Initial residual = 0.0057497899, Final residual = 0.00019753605, No Iterations 3
smoothSolver:  Solving for Uz, Initial residual = 0.0010252528, Final residual = 3.5717499e-05, No Iterations 3
GAMG:  Solving for p, Initial residual = 0.0073409674, Final residual = 6.0598695e-05, No Iterations 3
time step continuity errors : sum local = 4.4808649e-06, global = 5.7053331e-08, cumulative = 3.2058038e-05
ExecutionTime = 23.313662 s  ClockTime = 24 s

Time = 108s

smoothSolver:  Solving for Ux, Initial residual = 0.0008791141, Final residual = 2.9952434e-05, No Iterations 3
smoothSolver:  Solving for Uy, Initial residual = 0.0056883449, Final residual = 0.00019542057, No Iterations 3
smoothSolver:  Solving for Uz, Initial residual = 0.0010166403, Final residual = 3.5432978e-05, No Iterations 3
GAMG:  Solving for p, Initial residual = 0.0072852904, Final residual = 6.0112723e-05, No Iterations 3
time step continuity errors : sum local = 4.4492571e-06, global = 5.6992709e-08, cumulative = 3.2115031e-05
ExecutionTime = 23.517788 s  ClockTime = 24 s

Time = 109s

smoothSolver:  Solving for Ux, Initial residual = 0.00087652079, Final residual = 2.9874598e-05, No Iterations 3
smoothSolver:  Solving for Uy, Initial residual = 0.0056282282, Final residual = 0.00019333645, No Iterations 3
smoothSolver:  Solving for Uz, Initial residual = 0.0010081658, Final residual = 3.5153563e-05, No Iterations 3
GAMG:  Solving for p, Initial residual = 0.0072303372, Final residual = 5.9674461e-05, No Iterations 3
time step continuity errors : sum local = 4.421132e-06, global = 5.7016325e-08, cumulative = 3.2172048e-05
ExecutionTime = 23.721439 s  ClockTime = 24 s

Time = 110s

smoothSolver:  Solving for Ux, Initial residual = 0.000873967, Final residual = 2.9797303e-05, No Iterations 3
smoothSolver:  Solving for Uy, Initial residual = 0.0055691852, Final residual = 0.00019127689, No Iterations 3
smoothSolver:  Solving for Uz, Initial residual = 0.00099982112, Final residual = 3.4878262e-05, No Iterations 3
GAMG:  Solving for p, Initial residual = 0.0071786407, Final residual = 5.9277501e-05, No Iterations 3
time step continuity errors : sum local = 4.3960055e-06, global = 5.714861e-08, cumulative = 3.2229196e-05
ExecutionTime = 23.926474 s  ClockTime = 25 s

Time = 111s

smoothSolver:  Solving for Ux, Initial residual = 0.00087144768, Final residual = 2.9721589e-05, No Iterations 3
smoothSolver:  Solving for Uy, Initial residual = 0.005510626, Final residual = 0.00018923081, No Iterations 3
smoothSolver:  Solving for Uz, Initial residual = 0.00099160509, Final residual = 3.4607524e-05, No Iterations 3
GAMG:  Solving for p, Initial residual = 0.0071285979, Final residual = 5.8884471e-05, No Iterations 3
time step continuity errors : sum local = 4.3711029e-06, global = 5.7617367e-08, cumulative = 3.2286814e-05
ExecutionTime = 24.129621 s  ClockTime = 25 s

Time = 112s

smoothSolver:  Solving for Ux, Initial residual = 0.00086894409, Final residual = 2.9645986e-05, No Iterations 3
smoothSolver:  Solving for Uy, Initial residual = 0.005452458, Final residual = 0.00018719484, No Iterations 3
smoothSolver:  Solving for Uz, Initial residual = 0.00098351617, Final residual = 3.4340769e-05, No Iterations 3
GAMG:  Solving for p, Initial residual = 0.0070803084, Final residual = 5.8535627e-05, No Iterations 3
time step continuity errors : sum local = 4.3494198e-06, global = 5.7592024e-08, cumulative = 3.2344406e-05
ExecutionTime = 24.343203 s  ClockTime = 25 s

Time = 113s

smoothSolver:  Solving for Ux, Initial residual = 0.00086645165, Final residual = 2.9570517e-05, No Iterations 3
smoothSolver:  Solving for Uy, Initial residual = 0.0053944949, Final residual = 0.00018516277, No Iterations 3
smoothSolver:  Solving for Uz, Initial residual = 0.00097554386, Final residual = 3.4077902e-05, No Iterations 3
GAMG:  Solving for p, Initial residual = 0.0070332841, Final residual = 5.8192063e-05, No Iterations 3
time step continuity errors : sum local = 4.3280756e-06, global = 5.6933538e-08, cumulative = 3.2401339e-05
ExecutionTime = 24.548471 s  ClockTime = 25 s

Time = 114s

smoothSolver:  Solving for Ux, Initial residual = 0.00086395557, Final residual = 2.9495121e-05, No Iterations 3
smoothSolver:  Solving for Uy, Initial residual = 0.0053371161, Final residual = 0.0001831435, No Iterations 3
smoothSolver:  Solving for Uz, Initial residual = 0.00096768884, Final residual = 3.3818454e-05, No Iterations 3
GAMG:  Solving for p, Initial residual = 0.0069834478, Final residual = 5.7774442e-05, No Iterations 3
time step continuity errors : sum local = 4.3011617e-06, global = 5.6765573e-08, cumulative = 3.2458105e-05
ExecutionTime = 24.750125 s  ClockTime = 25 s

Time = 115s

smoothSolver:  Solving for Ux, Initial residual = 0.00086146712, Final residual = 2.941986e-05, No Iterations 3
smoothSolver:  Solving for Uy, Initial residual = 0.0052801446, Final residual = 0.00018114087, No Iterations 3
smoothSolver:  Solving for Uz, Initial residual = 0.00095994241, Final residual = 3.3562294e-05, No Iterations 3
GAMG:  Solving for p, Initial residual = 0.0069343352, Final residual = 5.7325677e-05, No Iterations 3
time step continuity errors : sum local = 4.2718376e-06, global = 5.6268586e-08, cumulative = 3.2514373e-05
ExecutionTime = 24.955117 s  ClockTime = 26 s

Time = 116s

smoothSolver:  Solving for Ux, Initial residual = 0.00085898787, Final residual = 2.9344128e-05, No Iterations 3
smoothSolver:  Solving for Uy, Initial residual = 0.0052239531, Final residual = 0.000179153, No Iterations 3
smoothSolver:  Solving for Uz, Initial residual = 0.00095229851, Final residual = 3.3309743e-05, No Iterations 3
GAMG:  Solving for p, Initial residual = 0.0068893683, Final residual = 5.6866149e-05, No Iterations 3
time step continuity errors : sum local = 4.2416237e-06, global = 5.5712612e-08, cumulative = 3.2570086e-05
ExecutionTime = 25.162016 s  ClockTime = 26 s

Time = 117s

smoothSolver:  Solving for Ux, Initial residual = 0.00085651208, Final residual = 2.9268433e-05, No Iterations 3
smoothSolver:  Solving for Uy, Initial residual = 0.0051684416, Final residual = 0.00017718568, No Iterations 3
smoothSolver:  Solving for Uz, Initial residual = 0.00094476657, Final residual = 3.3060529e-05, No Iterations 3
GAMG:  Solving for p, Initial residual = 0.0068470872, Final residual = 5.6383764e-05, No Iterations 3
time step continuity errors : sum local = 4.2096258e-06, global = 5.5160041e-08, cumulative = 3.2625246e-05
ExecutionTime = 25.368479 s  ClockTime = 26 s

Time = 118s

smoothSolver:  Solving for Ux, Initial residual = 0.00085404055, Final residual = 2.9192835e-05, No Iterations 3
smoothSolver:  Solving for Uy, Initial residual = 0.0051134254, Final residual = 0.00017524357, No Iterations 3
smoothSolver:  Solving for Uz, Initial residual = 0.00093733148, Final residual = 3.2814503e-05, No Iterations 3
GAMG:  Solving for p, Initial residual = 0.006805468, Final residual = 5.5871529e-05, No Iterations 3
time step continuity errors : sum local = 4.1753174e-06, global = 5.4681943e-08, cumulative = 3.2679928e-05
ExecutionTime = 25.576117 s  ClockTime = 26 s

Time = 119s

smoothSolver:  Solving for Ux, Initial residual = 0.0008515799, Final residual = 2.9116981e-05, No Iterations 3
smoothSolver:  Solving for Uy, Initial residual = 0.0050591364, Final residual = 0.00017332739, No Iterations 3
smoothSolver:  Solving for Uz, Initial residual = 0.00092998819, Final residual = 3.2571297e-05, No Iterations 3
GAMG:  Solving for p, Initial residual = 0.0067627752, Final residual = 5.5356983e-05, No Iterations 3
time step continuity errors : sum local = 4.1407451e-06, global = 5.4323069e-08, cumulative = 3.2734251e-05
ExecutionTime = 25.782581 s  ClockTime = 26 s

Time = 120s

smoothSolver:  Solving for Ux, Initial residual = 0.00084912419, Final residual = 2.9041042e-05, No Iterations 3
smoothSolver:  Solving for Uy, Initial residual = 0.0050054781, Final residual = 0.00017143491, No Iterations 3
smoothSolver:  Solving for Uz, Initial residual = 0.00092274603, Final residual = 3.2330657e-05, No Iterations 3
GAMG:  Solving for p, Initial residual = 0.0067201815, Final residual = 5.4854469e-05, No Iterations 3
time step continuity errors : sum local = 4.1069767e-06, global = 5.408283e-08, cumulative = 3.2788334e-05
ExecutionTime = 25.988839 s  ClockTime = 27 s

Time = 121s

smoothSolver:  Solving for Ux, Initial residual = 0.00084667118, Final residual = 2.8964563e-05, No Iterations 3
smoothSolver:  Solving for Uy, Initial residual = 0.0049522523, Final residual = 0.000169563, No Iterations 3
smoothSolver:  Solving for Uz, Initial residual = 0.00091559742, Final residual = 3.2092407e-05, No Iterations 3
GAMG:  Solving for p, Initial residual = 0.0066787068, Final residual = 5.4350646e-05, No Iterations 3
time step continuity errors : sum local = 4.07303e-06, global = 5.3803124e-08, cumulative = 3.2842137e-05
ExecutionTime = 26.192728 s  ClockTime = 27 s

Time = 122s

smoothSolver:  Solving for Ux, Initial residual = 0.00084422049, Final residual = 2.8887935e-05, No Iterations 3
smoothSolver:  Solving for Uy, Initial residual = 0.0048994288, Final residual = 0.00016770975, No Iterations 3
smoothSolver:  Solving for Uz, Initial residual = 0.0009085365, Final residual = 3.1856577e-05, No Iterations 3
GAMG:  Solving for p, Initial residual = 0.0066362069, Final residual = 5.3847498e-05, No Iterations 3
time step continuity errors : sum local = 4.039061e-06, global = 5.3489414e-08, cumulative = 3.2895626e-05
ExecutionTime = 26.398385 s  ClockTime = 27 s

Time = 123s

smoothSolver:  Solving for Ux, Initial residual = 0.00084177545, Final residual = 2.8810886e-05, No Iterations 3
smoothSolver:  Solving for Uy, Initial residual = 0.0048470132, Final residual = 0.00016586901, No Iterations 3
smoothSolver:  Solving for Uz, Initial residual = 0.00090156045, Final residual = 3.1623524e-05, No Iterations 3
GAMG:  Solving for p, Initial residual = 0.0065955685, Final residual = 5.3336926e-05, No Iterations 3
time step continuity errors : sum local = 4.0044514e-06, global = 5.3110132e-08, cumulative = 3.2948736e-05
ExecutionTime = 26.603867 s  ClockTime = 27 s

Time = 124s

smoothSolver:  Solving for Ux, Initial residual = 0.00083932385, Final residual = 2.8732258e-05, No Iterations 3
smoothSolver:  Solving for Uy, Initial residual = 0.004795323, Final residual = 0.00016404388, No Iterations 3
smoothSolver:  Solving for Uz, Initial residual = 0.00089467114, Final residual = 3.1392623e-05, No Iterations 3
GAMG:  Solving for p, Initial residual = 0.0065564848, Final residual = 5.2827394e-05, No Iterations 3
time step continuity errors : sum local = 3.9698393e-06, global = 5.2675946e-08, cumulative = 3.3001412e-05
ExecutionTime = 26.788509 s  ClockTime = 28 s

Time = 125s

smoothSolver:  Solving for Ux, Initial residual = 0.00083686014, Final residual = 2.8653397e-05, No Iterations 3
smoothSolver:  Solving for Uy, Initial residual = 0.0047447154, Final residual = 0.00016224507, No Iterations 3
smoothSolver:  Solving for Uz, Initial residual = 0.00088786562, Final residual = 3.1164182e-05, No Iterations 3
GAMG:  Solving for p, Initial residual = 0.006518792, Final residual = 5.2361733e-05, No Iterations 3
time step continuity errors : sum local = 3.9384552e-06, global = 5.2248277e-08, cumulative = 3.3053661e-05
ExecutionTime = 26.982137 s  ClockTime = 28 s

Time = 126s

smoothSolver:  Solving for Ux, Initial residual = 0.00083438857, Final residual = 2.8574278e-05, No Iterations 3
smoothSolver:  Solving for Uy, Initial residual = 0.004694978, Final residual = 0.00016046576, No Iterations 3
smoothSolver:  Solving for Uz, Initial residual = 0.00088113372, Final residual = 3.0937693e-05, No Iterations 3
GAMG:  Solving for p, Initial residual = 0.0064776045, Final residual = 5.1901763e-05, No Iterations 3
time step continuity errors : sum local = 3.9074354e-06, global = 5.1764219e-08, cumulative = 3.3105425e-05
ExecutionTime = 27.185021 s  ClockTime = 28 s

Time = 127s

smoothSolver:  Solving for Ux, Initial residual = 0.00083190483, Final residual = 2.8495004e-05, No Iterations 3
smoothSolver:  Solving for Uy, Initial residual = 0.0046460174, Final residual = 0.00015870168, No Iterations 3
smoothSolver:  Solving for Uz, Initial residual = 0.00087448338, Final residual = 3.0713176e-05, No Iterations 3
GAMG:  Solving for p, Initial residual = 0.0064365462, Final residual = 5.1461041e-05, No Iterations 3
time step continuity errors : sum local = 3.8778033e-06, global = 5.129019e-08, cumulative = 3.3156715e-05
ExecutionTime = 27.38672 s  ClockTime = 28 s

Time = 128s

smoothSolver:  Solving for Ux, Initial residual = 0.00082942177, Final residual = 2.8414412e-05, No Iterations 3
smoothSolver:  Solving for Uy, Initial residual = 0.0045976042, Final residual = 0.00015696206, No Iterations 3
smoothSolver:  Solving for Uz, Initial residual = 0.0008679164, Final residual = 3.0490223e-05, No Iterations 3
GAMG:  Solving for p, Initial residual = 0.0063988442, Final residual = 5.0975944e-05, No Iterations 3
time step continuity errors : sum local = 3.8447574e-06, global = 5.1768272e-08, cumulative = 3.3208483e-05
ExecutionTime = 27.591668 s  ClockTime = 28 s

Time = 129s

smoothSolver:  Solving for Ux, Initial residual = 0.00082693628, Final residual = 2.8333094e-05, No Iterations 3
smoothSolver:  Solving for Uy, Initial residual = 0.0045499537, Final residual = 0.00015525196, No Iterations 3
smoothSolver:  Solving for Uz, Initial residual = 0.00086142564, Final residual = 3.0269099e-05, No Iterations 3
GAMG:  Solving for p, Initial residual = 0.00636116, Final residual = 5.053916e-05, No Iterations 3
time step continuity errors : sum local = 3.815293e-06, global = 5.1552013e-08, cumulative = 3.3260035e-05
ExecutionTime = 27.796179 s  ClockTime = 29 s

Time = 130s

smoothSolver:  Solving for Ux, Initial residual = 0.00082444347, Final residual = 2.8250689e-05, No Iterations 3
smoothSolver:  Solving for Uy, Initial residual = 0.0045028286, Final residual = 0.0001535624, No Iterations 3
[...]
GAMG:  Solving for p, Initial residual = 1.4353694e-05, Final residual = 1.0367126e-07, No Iterations 2
time step continuity errors : sum local = 9.0289211e-09, global = -6.5738685e-10, cumulative = 3.7288308e-05
ExecutionTime = 218.94353 s  ClockTime = 222 s

Time = 1092s

smoothSolver:  Solving for Ux, Initial residual = 3.2329767e-06, Final residual = 1.2039061e-07, No Iterations 3
smoothSolver:  Solving for Uy, Initial residual = 7.1437865e-06, Final residual = 2.5252614e-07, No Iterations 3
smoothSolver:  Solving for Uz, Initial residual = 1.6017131e-06, Final residual = 5.8188426e-08, No Iterations 3
GAMG:  Solving for p, Initial residual = 1.4189028e-05, Final residual = 1.0262003e-07, No Iterations 2
time step continuity errors : sum local = 8.9373545e-09, global = -6.520096e-10, cumulative = 3.7287656e-05
ExecutionTime = 219.13726 s  ClockTime = 222 s

Time = 1093s

smoothSolver:  Solving for Ux, Initial residual = 3.1960793e-06, Final residual = 1.190195e-07, No Iterations 3
smoothSolver:  Solving for Uy, Initial residual = 7.0779018e-06, Final residual = 2.5026156e-07, No Iterations 3
smoothSolver:  Solving for Uz, Initial residual = 1.583657e-06, Final residual = 5.7530309e-08, No Iterations 3
GAMG:  Solving for p, Initial residual = 1.4026429e-05, Final residual = 1.0158275e-07, No Iterations 2
time step continuity errors : sum local = 8.8470022e-09, global = -6.4657337e-10, cumulative = 3.728701e-05
ExecutionTime = 219.33042 s  ClockTime = 222 s

Time = 1094s

smoothSolver:  Solving for Ux, Initial residual = 3.1596464e-06, Final residual = 1.1766536e-07, No Iterations 3
smoothSolver:  Solving for Uy, Initial residual = 7.012845e-06, Final residual = 2.4803447e-07, No Iterations 3
smoothSolver:  Solving for Uz, Initial residual = 1.5658427e-06, Final residual = 5.6881138e-08, No Iterations 3
GAMG:  Solving for p, Initial residual = 1.3865805e-05, Final residual = 1.0055838e-07, No Iterations 2
time step continuity errors : sum local = 8.7577763e-09, global = -6.4107929e-10, cumulative = 3.7286369e-05
ExecutionTime = 219.52225 s  ClockTime = 222 s

Time = 1095s

smoothSolver:  Solving for Ux, Initial residual = 3.1236672e-06, Final residual = 1.1632823e-07, No Iterations 3
smoothSolver:  Solving for Uy, Initial residual = 6.9488846e-06, Final residual = 2.4585185e-07, No Iterations 3
smoothSolver:  Solving for Uz, Initial residual = 1.5482709e-06, Final residual = 5.6240875e-08, No Iterations 3
GAMG:  Solving for p, Initial residual = 1.3707257e-05, Final residual = 9.9544463e-08, No Iterations 2
time step continuity errors : sum local = 8.6694599e-09, global = -6.3551854e-10, cumulative = 3.7285733e-05
ExecutionTime = 219.7147 s  ClockTime = 222 s

Time = 1096s

smoothSolver:  Solving for Ux, Initial residual = 3.0881434e-06, Final residual = 1.1500827e-07, No Iterations 3
smoothSolver:  Solving for Uy, Initial residual = 6.8857981e-06, Final residual = 2.437125e-07, No Iterations 3
smoothSolver:  Solving for Uz, Initial residual = 1.5309286e-06, Final residual = 5.56094e-08, No Iterations 3
GAMG:  Solving for p, Initial residual = 1.3550718e-05, Final residual = 9.85413e-08, No Iterations 2
time step continuity errors : sum local = 8.5820809e-09, global = -6.2990856e-10, cumulative = 3.7285103e-05
ExecutionTime = 219.90767 s  ClockTime = 223 s

Time = 1097s

smoothSolver:  Solving for Ux, Initial residual = 3.0530551e-06, Final residual = 1.1370516e-07, No Iterations 3
smoothSolver:  Solving for Uy, Initial residual = 6.8234239e-06, Final residual = 2.4161206e-07, No Iterations 3
smoothSolver:  Solving for Uz, Initial residual = 1.5138135e-06, Final residual = 5.4986411e-08, No Iterations 3
GAMG:  Solving for p, Initial residual = 1.3396057e-05, Final residual = 9.7549617e-08, No Iterations 2
time step continuity errors : sum local = 8.495702e-09, global = -6.2425771e-10, cumulative = 3.7284479e-05
ExecutionTime = 220.10182 s  ClockTime = 223 s

Time = 1098s

smoothSolver:  Solving for Ux, Initial residual = 3.0184027e-06, Final residual = 1.1241839e-07, No Iterations 3
smoothSolver:  Solving for Uy, Initial residual = 6.7619439e-06, Final residual = 2.3954248e-07, No Iterations 3
smoothSolver:  Solving for Uz, Initial residual = 1.4969244e-06, Final residual = 5.4371684e-08, No Iterations 3
GAMG:  Solving for p, Initial residual = 1.3243254e-05, Final residual = 9.656594e-08, No Iterations 2
time step continuity errors : sum local = 8.4100208e-09, global = -6.1857659e-10, cumulative = 3.7283861e-05
ExecutionTime = 220.29374 s  ClockTime = 223 s

Time = 1099s

smoothSolver:  Solving for Ux, Initial residual = 2.9841882e-06, Final residual = 1.1114814e-07, No Iterations 3
smoothSolver:  Solving for Uy, Initial residual = 6.7011429e-06, Final residual = 2.3749842e-07, No Iterations 3
smoothSolver:  Solving for Uz, Initial residual = 1.4802613e-06, Final residual = 5.3765306e-08, No Iterations 3
GAMG:  Solving for p, Initial residual = 1.3092359e-05, Final residual = 9.5593361e-08, No Iterations 2
time step continuity errors : sum local = 8.3253063e-09, global = -6.1285667e-10, cumulative = 3.7283248e-05
ExecutionTime = 220.48902 s  ClockTime = 223 s

Time = 1100s

smoothSolver:  Solving for Ux, Initial residual = 2.9504041e-06, Final residual = 1.0989408e-07, No Iterations 3
smoothSolver:  Solving for Uy, Initial residual = 6.641273e-06, Final residual = 2.3547978e-07, No Iterations 3
smoothSolver:  Solving for Uz, Initial residual = 1.4638216e-06, Final residual = 5.3166995e-08, No Iterations 3
GAMG:  Solving for p, Initial residual = 1.2943354e-05, Final residual = 9.4632031e-08, No Iterations 2
time step continuity errors : sum local = 8.2415719e-09, global = -6.071304e-10, cumulative = 3.7282641e-05
ExecutionTime = 220.68061 s  ClockTime = 223 s

Time = 1101s

smoothSolver:  Solving for Ux, Initial residual = 2.9170417e-06, Final residual = 1.0865572e-07, No Iterations 3
smoothSolver:  Solving for Uy, Initial residual = 6.5823305e-06, Final residual = 2.3348711e-07, No Iterations 3
smoothSolver:  Solving for Uz, Initial residual = 1.4476012e-06, Final residual = 5.2576865e-08, No Iterations 3
GAMG:  Solving for p, Initial residual = 1.2796309e-05, Final residual = 9.3680983e-08, No Iterations 2
time step continuity errors : sum local = 8.1587334e-09, global = -6.0148991e-10, cumulative = 3.7282039e-05
ExecutionTime = 220.87296 s  ClockTime = 224 s

Time = 1102s

smoothSolver:  Solving for Ux, Initial residual = 2.8840956e-06, Final residual = 1.0743261e-07, No Iterations 3
smoothSolver:  Solving for Uy, Initial residual = 6.5241787e-06, Final residual = 2.3152288e-07, No Iterations 3
smoothSolver:  Solving for Uz, Initial residual = 1.4315896e-06, Final residual = 5.1994552e-08, No Iterations 3
GAMG:  Solving for p, Initial residual = 1.2651103e-05, Final residual = 9.2737731e-08, No Iterations 2
time step continuity errors : sum local = 8.0765741e-09, global = -5.9581151e-10, cumulative = 3.7281443e-05
ExecutionTime = 221.06843 s  ClockTime = 224 s

Time = 1103s

smoothSolver:  Solving for Ux, Initial residual = 2.8515738e-06, Final residual = 1.0622443e-07, No Iterations 3
smoothSolver:  Solving for Uy, Initial residual = 6.4666227e-06, Final residual = 2.2958231e-07, No Iterations 3
smoothSolver:  Solving for Uz, Initial residual = 1.415791e-06, Final residual = 5.1419927e-08, No Iterations 3
GAMG:  Solving for p, Initial residual = 1.2507653e-05, Final residual = 9.1811436e-08, No Iterations 2
time step continuity errors : sum local = 7.9958919e-09, global = -5.9003556e-10, cumulative = 3.7280853e-05
ExecutionTime = 221.25945 s  ClockTime = 224 s

Time = 1104s

smoothSolver:  Solving for Ux, Initial residual = 2.8194675e-06, Final residual = 1.0503086e-07, No Iterations 3
smoothSolver:  Solving for Uy, Initial residual = 6.4098906e-06, Final residual = 2.2767704e-07, No Iterations 3
smoothSolver:  Solving for Uz, Initial residual = 1.4002004e-06, Final residual = 5.0852913e-08, No Iterations 3
GAMG:  Solving for p, Initial residual = 1.2365893e-05, Final residual = 9.0891559e-08, No Iterations 2
time step continuity errors : sum local = 7.9157689e-09, global = -5.842077e-10, cumulative = 3.7280269e-05
ExecutionTime = 221.45275 s  ClockTime = 224 s

Time = 1105s

smoothSolver:  Solving for Ux, Initial residual = 2.7877657e-06, Final residual = 1.0385242e-07, No Iterations 3
smoothSolver:  Solving for Uy, Initial residual = 6.3539775e-06, Final residual = 2.2579838e-07, No Iterations 3
smoothSolver:  Solving for Uz, Initial residual = 1.3848146e-06, Final residual = 5.0293489e-08, No Iterations 3
GAMG:  Solving for p, Initial residual = 1.2225768e-05, Final residual = 8.9975915e-08, No Iterations 2
time step continuity errors : sum local = 7.836015e-09, global = -5.7830514e-10, cumulative = 3.7279691e-05
ExecutionTime = 221.64804 s  ClockTime = 224 s

Time = 1106s

smoothSolver:  Solving for Ux, Initial residual = 2.7564531e-06, Final residual = 1.0268893e-07, No Iterations 3
smoothSolver:  Solving for Uy, Initial residual = 6.2987248e-06, Final residual = 2.2394093e-07, No Iterations 3
smoothSolver:  Solving for Uz, Initial residual = 1.3696297e-06, Final residual = 4.974149e-08, No Iterations 3
GAMG:  Solving for p, Initial residual = 1.2087302e-05, Final residual = 8.9071803e-08, No Iterations 2
time step continuity errors : sum local = 7.7572657e-09, global = -5.724351e-10, cumulative = 3.7279118e-05
ExecutionTime = 221.83755 s  ClockTime = 224 s

Time = 1107s

smoothSolver:  Solving for Ux, Initial residual = 2.7255252e-06, Final residual = 1.0154001e-07, No Iterations 3
smoothSolver:  Solving for Uy, Initial residual = 6.24425e-06, Final residual = 2.2211721e-07, No Iterations 3
smoothSolver:  Solving for Uz, Initial residual = 1.3546431e-06, Final residual = 4.9196842e-08, No Iterations 3
GAMG:  Solving for p, Initial residual = 1.1950573e-05, Final residual = 8.8180032e-08, No Iterations 2
time step continuity errors : sum local = 7.6795914e-09, global = -5.6655507e-10, cumulative = 3.7278552e-05
ExecutionTime = 222.02977 s  ClockTime = 225 s

Time = 1108s

smoothSolver:  Solving for Ux, Initial residual = 2.6949897e-06, Final residual = 1.004058e-07, No Iterations 3
smoothSolver:  Solving for Uy, Initial residual = 6.1904975e-06, Final residual = 2.2032066e-07, No Iterations 3
smoothSolver:  Solving for Uz, Initial residual = 1.3398552e-06, Final residual = 4.8659727e-08, No Iterations 3
GAMG:  Solving for p, Initial residual = 1.1815557e-05, Final residual = 8.7297838e-08, No Iterations 2
time step continuity errors : sum local = 7.6027514e-09, global = -5.6067096e-10, cumulative = 3.7277991e-05
ExecutionTime = 222.22642 s  ClockTime = 225 s

Time = 1109s

smoothSolver:  Solving for Ux, Initial residual = 2.66483e-06, Final residual = 9.928615e-08, No Iterations 3
smoothSolver:  Solving for Uy, Initial residual = 6.1373725e-06, Final residual = 2.1853971e-07, No Iterations 3
smoothSolver:  Solving for Uz, Initial residual = 1.3252627e-06, Final residual = 4.8129708e-08, No Iterations 3
GAMG:  Solving for p, Initial residual = 1.1682183e-05, Final residual = 8.6421794e-08, No Iterations 2
time step continuity errors : sum local = 7.5264474e-09, global = -5.5479621e-10, cumulative = 3.7277436e-05
ExecutionTime = 222.41813 s  ClockTime = 225 s

Time = 1110s

smoothSolver:  Solving for Ux, Initial residual = 2.6350371e-06, Final residual = 9.8180927e-08, No Iterations 3
smoothSolver:  Solving for Uy, Initial residual = 6.0847137e-06, Final residual = 2.1678438e-07, No Iterations 3
smoothSolver:  Solving for Uz, Initial residual = 1.3108584e-06, Final residual = 4.7606836e-08, No Iterations 3
GAMG:  Solving for p, Initial residual = 1.1550408e-05, Final residual = 8.5553232e-08, No Iterations 2
time step continuity errors : sum local = 7.4507952e-09, global = -5.4894753e-10, cumulative = 3.7276887e-05
ExecutionTime = 222.61259 s  ClockTime = 225 s

Time = 1111s

smoothSolver:  Solving for Ux, Initial residual = 2.6056124e-06, Final residual = 9.7089472e-08, No Iterations 3
smoothSolver:  Solving for Uy, Initial residual = 6.0327113e-06, Final residual = 2.1504292e-07, No Iterations 3
smoothSolver:  Solving for Uz, Initial residual = 1.2966368e-06, Final residual = 4.7091203e-08, No Iterations 3
GAMG:  Solving for p, Initial residual = 1.1420217e-05, Final residual = 8.4692949e-08, No Iterations 2
time step continuity errors : sum local = 7.3758643e-09, global = -5.4312557e-10, cumulative = 3.7276344e-05
ExecutionTime = 222.80763 s  ClockTime = 225 s

Time = 1112s

smoothSolver:  Solving for Ux, Initial residual = 2.5765577e-06, Final residual = 9.6011453e-08, No Iterations 3
smoothSolver:  Solving for Uy, Initial residual = 5.9814897e-06, Final residual = 2.1332993e-07, No Iterations 3
smoothSolver:  Solving for Uz, Initial residual = 1.2826026e-06, Final residual = 4.6582663e-08, No Iterations 3
GAMG:  Solving for p, Initial residual = 1.1291625e-05, Final residual = 8.3842843e-08, No Iterations 2
time step continuity errors : sum local = 7.30182e-09, global = -5.3733387e-10, cumulative = 3.7275807e-05
ExecutionTime = 223.00318 s  ClockTime = 226 s

Time = 1113s

smoothSolver:  Solving for Ux, Initial residual = 2.5478711e-06, Final residual = 9.494726e-08, No Iterations 3
smoothSolver:  Solving for Uy, Initial residual = 5.9308826e-06, Final residual = 2.1164166e-07, No Iterations 3
smoothSolver:  Solving for Uz, Initial residual = 1.2687507e-06, Final residual = 4.6080972e-08, No Iterations 3
GAMG:  Solving for p, Initial residual = 1.1164668e-05, Final residual = 8.3002805e-08, No Iterations 2
time step continuity errors : sum local = 7.2286527e-09, global = -5.3157003e-10, cumulative = 3.7275275e-05
ExecutionTime = 223.19478 s  ClockTime = 226 s

Time = 1114s

smoothSolver:  Solving for Ux, Initial residual = 2.5195463e-06, Final residual = 9.3897345e-08, No Iterations 3
smoothSolver:  Solving for Uy, Initial residual = 5.880914e-06, Final residual = 2.0997687e-07, No Iterations 3
smoothSolver:  Solving for Uz, Initial residual = 1.2550768e-06, Final residual = 4.5585986e-08, No Iterations 3
GAMG:  Solving for p, Initial residual = 1.1039342e-05, Final residual = 8.2174324e-08, No Iterations 2
time step continuity errors : sum local = 7.1564922e-09, global = -5.2583235e-10, cumulative = 3.7274749e-05
ExecutionTime = 223.39287 s  ClockTime = 226 s

Time = 1115s

smoothSolver:  Solving for Ux, Initial residual = 2.491579e-06, Final residual = 9.2861054e-08, No Iterations 3
smoothSolver:  Solving for Uy, Initial residual = 5.8314291e-06, Final residual = 2.0833197e-07, No Iterations 3
smoothSolver:  Solving for Uz, Initial residual = 1.2415857e-06, Final residual = 4.5097474e-08, No Iterations 3
GAMG:  Solving for p, Initial residual = 1.0915588e-05, Final residual = 8.1354024e-08, No Iterations 2
time step continuity errors : sum local = 7.0850444e-09, global = -5.2011978e-10, cumulative = 3.7274229e-05
ExecutionTime = 223.58863 s  ClockTime = 226 s

Time = 1116s

smoothSolver:  Solving for Ux, Initial residual = 2.4639661e-06, Final residual = 9.1837889e-08, No Iterations 3
smoothSolver:  Solving for Uy, Initial residual = 5.7824652e-06, Final residual = 2.0670169e-07, No Iterations 3
smoothSolver:  Solving for Uz, Initial residual = 1.2282657e-06, Final residual = 4.4615545e-08, No Iterations 3
GAMG:  Solving for p, Initial residual = 1.0793401e-05, Final residual = 8.0540578e-08, No Iterations 2
time step continuity errors : sum local = 7.0141938e-09, global = -5.1444384e-10, cumulative = 3.7273715e-05
ExecutionTime = 223.78613 s  ClockTime = 226 s

Time = 1117s

smoothSolver:  Solving for Ux, Initial residual = 2.4366994e-06, Final residual = 9.0827413e-08, No Iterations 3
smoothSolver:  Solving for Uy, Initial residual = 5.7339551e-06, Final residual = 2.0508886e-07, No Iterations 3
smoothSolver:  Solving for Uz, Initial residual = 1.2151159e-06, Final residual = 4.4139774e-08, No Iterations 3
GAMG:  Solving for p, Initial residual = 1.0672719e-05, Final residual = 7.973482e-08, No Iterations 2
time step continuity errors : sum local = 6.9440129e-09, global = -5.0881633e-10, cumulative = 3.7273206e-05
ExecutionTime = 223.98071 s  ClockTime = 227 s

Time = 1118s

smoothSolver:  Solving for Ux, Initial residual = 2.4097718e-06, Final residual = 8.9829147e-08, No Iterations 3
smoothSolver:  Solving for Uy, Initial residual = 5.6860379e-06, Final residual = 2.0350294e-07, No Iterations 3
smoothSolver:  Solving for Uz, Initial residual = 1.202141e-06, Final residual = 4.3670227e-08, No Iterations 3
GAMG:  Solving for p, Initial residual = 1.0553523e-05, Final residual = 7.8935485e-08, No Iterations 2
time step continuity errors : sum local = 6.8743916e-09, global = -5.0325646e-10, cumulative = 3.7272703e-05
ExecutionTime = 224.1761 s  ClockTime = 227 s

Time = 1119s

smoothSolver:  Solving for Ux, Initial residual = 2.3831773e-06, Final residual = 8.8843157e-08, No Iterations 3
smoothSolver:  Solving for Uy, Initial residual = 5.6386789e-06, Final residual = 2.0192684e-07, No Iterations 3
smoothSolver:  Solving for Uz, Initial residual = 1.1893316e-06, Final residual = 4.3206877e-08, No Iterations 3
GAMG:  Solving for p, Initial residual = 1.0435867e-05, Final residual = 7.814556e-08, No Iterations 2
time step continuity errors : sum local = 6.8055902e-09, global = -4.9776263e-10, cumulative = 3.7272205e-05
ExecutionTime = 224.369 s  ClockTime = 227 s

Time = 1120s

smoothSolver:  Solving for Ux, Initial residual = 2.3569191e-06, Final residual = 8.7869482e-08, No Iterations 3
smoothSolver:  Solving for Uy, Initial residual = 5.5916858e-06, Final residual = 2.0035878e-07, No Iterations 3
smoothSolver:  Solving for Uz, Initial residual = 1.1766894e-06, Final residual = 4.2749548e-08, No Iterations 3
GAMG:  Solving for p, Initial residual = 1.0319672e-05, Final residual = 7.736318e-08, No Iterations 2
time step continuity errors : sum local = 6.7374459e-09, global = -4.9234498e-10, cumulative = 3.7271713e-05
ExecutionTime = 224.56612 s  ClockTime = 227 s

Time = 1121s

smoothSolver:  Solving for Ux, Initial residual = 2.3309874e-06, Final residual = 8.6907673e-08, No Iterations 3
smoothSolver:  Solving for Uy, Initial residual = 5.5450115e-06, Final residual = 1.9879472e-07, No Iterations 3
smoothSolver:  Solving for Uz, Initial residual = 1.164214e-06, Final residual = 4.2298173e-08, No Iterations 3
GAMG:  Solving for p, Initial residual = 1.020489e-05, Final residual = 7.6588254e-08, No Iterations 2
time step continuity errors : sum local = 6.6699511e-09, global = -4.8700469e-10, cumulative = 3.7271226e-05
ExecutionTime = 224.76088 s  ClockTime = 227 s

Time = 1122s

smoothSolver:  Solving for Ux, Initial residual = 2.3053838e-06, Final residual = 8.595802e-08, No Iterations 3
smoothSolver:  Solving for Uy, Initial residual = 5.4986719e-06, Final residual = 1.9723938e-07, No Iterations 3
smoothSolver:  Solving for Uz, Initial residual = 1.1518977e-06, Final residual = 4.1852505e-08, No Iterations 3
GAMG:  Solving for p, Initial residual = 1.0091556e-05, Final residual = 7.582175e-08, No Iterations 2
time step continuity errors : sum local = 6.6031899e-09, global = -4.8174074e-10, cumulative = 3.7270744e-05
ExecutionTime = 224.95863 s  ClockTime = 228 s

Time = 1123s

smoothSolver:  Solving for Ux, Initial residual = 2.2800978e-06, Final residual = 8.5020373e-08, No Iterations 3
smoothSolver:  Solving for Uy, Initial residual = 5.4527292e-06, Final residual = 1.9569337e-07, No Iterations 3
smoothSolver:  Solving for Uz, Initial residual = 1.1397382e-06, Final residual = 4.1412546e-08, No Iterations 3
GAMG:  Solving for p, Initial residual = 9.9796553e-06, Final residual = 7.506429e-08, No Iterations 2
time step continuity errors : sum local = 6.5372166e-09, global = -4.765519e-10, cumulative = 3.7270267e-05
ExecutionTime = 225.1511 s  ClockTime = 228 s


SIMPLE solution converged in 1123 iterations

End

Finalising parallel run
