/*---------------------------------------------------------------------------*\
  =========                 |
  \\      /  F ield         | OpenFOAM: The Open Source CFD Toolbox
   \\    /   O peration     | Website:  https://openfoam.org
    \\  /    A nd           | Version:  11
     \\/     M anipulation  |
\*---------------------------------------------------------------------------*/
Build  : 11-e1fc8c682ae6
Exec   : foamRun -solver incompressibleFluid -parallel
Date   : Feb 09 2026
Time   : 20:45:07
Host   : "ip-172-31-18-192"
PID    : 139325
I/O    : uncollated
Case   : /home/ubuntu/cases/bifurcation_angle60_750_ascii/Re200
nProcs : 16
Slaves : 
15
(
"ip-172-31-18-192.139326"
"ip-172-31-18-192.139327"
"ip-172-31-18-192.139328"
"ip-172-31-18-192.139329"
"ip-172-31-18-192.139330"
"ip-172-31-18-192.139331"
"ip-172-31-18-192.139332"
"ip-172-31-18-192.139333"
"ip-172-31-18-192.139334"
"ip-172-31-18-192.139335"
"ip-172-31-18-192.139336"
"ip-172-31-18-192.139337"
"ip-172-31-18-192.139338"
"ip-172-31-18-192.139339"
"ip-172-31-18-192.139340"
)

Pstream initialised with:
    floatTransfer      : false
    nProcsSimpleSum    : 0
    commsType          : nonBlocking
    polling iterations : 0
sigFpe : Enabling floating point exception trapping (FOAM_SIGFPE).
fileModificationChecking : Monitoring run-time modified files using timeStampMaster (fileModificationSkew 10)
allowSystemOperations : Allowing user-supplied system call operations

// * * * * * * * * * * * * * * * * * * * * * * * * * * * * * * * * * * * * * //
Create time

Create mesh for time = 0

Selecting solver incompressibleFluid
Selecting viscosity model Newtonian
Selecting turbulence model type laminar
Selecting laminar stress model Stokes
No MRF models present


SIMPLE: Convergence criteria found
        p: tolerance 1e-05
        U: tolerance 1e-05


SIMPLE: Operating solver in steady-state mode with 1 outer corrector
SIMPLE: Operating solver in SIMPLE mode



Starting time loop

wallShearStress wallShearStress:
    processing wall patches: 
        wall-fluid_domain

Time = 1s

smoothSolver:  Solving for Ux, Initial residual = 1, Final residual = 0.040425437, No Iterations 1
smoothSolver:  Solving for Uy, Initial residual = 1, Final residual = 0.051153367, No Iterations 1
smoothSolver:  Solving for Uz, Initial residual = 1, Final residual = 0.020557134, No Iterations 1
GAMG:  Solving for p, Initial residual = 1, Final residual = 0.0090101933, No Iterations 10
time step continuity errors : sum local = 0.0001474807, global = -1.6785829e-06, cumulative = -1.6785829e-06
ExecutionTime = 0.632974 s  ClockTime = 0 s

Time = 2s

smoothSolver:  Solving for Ux, Initial residual = 0.27038462, Final residual = 0.016011689, No Iterations 2
smoothSolver:  Solving for Uy, Initial residual = 0.32534679, Final residual = 0.014823522, No Iterations 2
smoothSolver:  Solving for Uz, Initial residual = 0.32012179, Final residual = 0.026803638, No Iterations 2
GAMG:  Solving for p, Initial residual = 0.29546332, Final residual = 0.0021870133, No Iterations 6
time step continuity errors : sum local = 0.003746002, global = -0.00010890795, cumulative = -0.00011058653
ExecutionTime = 0.844748 s  ClockTime = 0 s

Time = 3s

smoothSolver:  Solving for Ux, Initial residual = 0.21454403, Final residual = 0.020762058, No Iterations 2
smoothSolver:  Solving for Uy, Initial residual = 0.13230521, Final residual = 0.0078573621, No Iterations 2
smoothSolver:  Solving for Uz, Initial residual = 0.60713672, Final residual = 0.0215696, No Iterations 3
GAMG:  Solving for p, Initial residual = 0.14218355, Final residual = 0.00085164214, No Iterations 3
time step continuity errors : sum local = 0.0061543134, global = 0.00010705254, cumulative = -3.5339929e-06
ExecutionTime = 1.008711 s  ClockTime = 1 s

Time = 4s

smoothSolver:  Solving for Ux, Initial residual = 0.14129908, Final residual = 0.0045692955, No Iterations 3
smoothSolver:  Solving for Uy, Initial residual = 0.07005314, Final residual = 0.004185549, No Iterations 2
smoothSolver:  Solving for Uz, Initial residual = 0.45530406, Final residual = 0.016186547, No Iterations 3
GAMG:  Solving for p, Initial residual = 0.097818153, Final residual = 0.00086690052, No Iterations 5
time step continuity errors : sum local = 0.0062565639, global = -1.642781e-06, cumulative = -5.1767739e-06
ExecutionTime = 1.193204 s  ClockTime = 1 s

Time = 5s

smoothSolver:  Solving for Ux, Initial residual = 0.089166995, Final residual = 0.0081342305, No Iterations 2
smoothSolver:  Solving for Uy, Initial residual = 0.18607059, Final residual = 0.012477142, No Iterations 2
smoothSolver:  Solving for Uz, Initial residual = 0.17712923, Final residual = 0.0063068869, No Iterations 3
GAMG:  Solving for p, Initial residual = 0.084246832, Final residual = 0.00075510537, No Iterations 6
time step continuity errors : sum local = 0.002730944, global = 0.0001070484, cumulative = 0.00010187163
ExecutionTime = 1.381451 s  ClockTime = 1 s

Time = 6s

smoothSolver:  Solving for Ux, Initial residual = 0.10356695, Final residual = 0.0078388981, No Iterations 2
smoothSolver:  Solving for Uy, Initial residual = 0.40579286, Final residual = 0.026545665, No Iterations 2
smoothSolver:  Solving for Uz, Initial residual = 0.088866976, Final residual = 0.003111284, No Iterations 3
GAMG:  Solving for p, Initial residual = 0.41296316, Final residual = 0.001794133, No Iterations 5
time step continuity errors : sum local = 0.0037354449, global = -6.5301589e-05, cumulative = 3.6570038e-05
ExecutionTime = 1.563211 s  ClockTime = 1 s

Time = 7s

smoothSolver:  Solving for Ux, Initial residual = 0.13759926, Final residual = 0.012411708, No Iterations 2
smoothSolver:  Solving for Uy, Initial residual = 0.25213266, Final residual = 0.015874786, No Iterations 2
smoothSolver:  Solving for Uz, Initial residual = 0.27212788, Final residual = 0.0096616846, No Iterations 3
GAMG:  Solving for p, Initial residual = 0.2476433, Final residual = 0.0010544836, No Iterations 4
time step continuity errors : sum local = 0.004152447, global = 1.0132468e-05, cumulative = 4.6702506e-05
ExecutionTime = 1.733035 s  ClockTime = 1 s

Time = 8s

smoothSolver:  Solving for Ux, Initial residual = 0.11309615, Final residual = 0.010990686, No Iterations 2
smoothSolver:  Solving for Uy, Initial residual = 0.13427803, Final residual = 0.0090121692, No Iterations 2
smoothSolver:  Solving for Uz, Initial residual = 0.28231288, Final residual = 0.010023658, No Iterations 3
GAMG:  Solving for p, Initial residual = 0.19442895, Final residual = 0.0010346083, No Iterations 5
time step continuity errors : sum local = 0.0033809675, global = 3.0190383e-07, cumulative = 4.7004409e-05
ExecutionTime = 1.913002 s  ClockTime = 2 s

Time = 9s

smoothSolver:  Solving for Ux, Initial residual = 0.079415663, Final residual = 0.0070239889, No Iterations 2
smoothSolver:  Solving for Uy, Initial residual = 0.25571537, Final residual = 0.019876978, No Iterations 2
smoothSolver:  Solving for Uz, Initial residual = 0.096890047, Final residual = 0.0033875526, No Iterations 3
GAMG:  Solving for p, Initial residual = 0.20398786, Final residual = 0.00097928065, No Iterations 6
time step continuity errors : sum local = 0.0012323385, global = -2.9778612e-05, cumulative = 1.7225797e-05
ExecutionTime = 2.102905 s  ClockTime = 2 s

Time = 10s

smoothSolver:  Solving for Ux, Initial residual = 0.085925789, Final residual = 0.007112405, No Iterations 2
smoothSolver:  Solving for Uy, Initial residual = 0.39546552, Final residual = 0.028299446, No Iterations 2
smoothSolver:  Solving for Uz, Initial residual = 0.092846768, Final residual = 0.0033150015, No Iterations 3
GAMG:  Solving for p, Initial residual = 0.29052344, Final residual = 0.0026456679, No Iterations 4
time step continuity errors : sum local = 0.0034321709, global = -4.4505223e-05, cumulative = -2.7279425e-05
ExecutionTime = 2.272401 s  ClockTime = 2 s

Time = 11s

smoothSolver:  Solving for Ux, Initial residual = 0.07769352, Final residual = 0.0071545728, No Iterations 2
smoothSolver:  Solving for Uy, Initial residual = 0.23043499, Final residual = 0.015234941, No Iterations 2
smoothSolver:  Solving for Uz, Initial residual = 0.14204079, Final residual = 0.0050689659, No Iterations 3
GAMG:  Solving for p, Initial residual = 0.20940864, Final residual = 0.0014272987, No Iterations 4
time step continuity errors : sum local = 0.002727299, global = 7.7393127e-06, cumulative = -1.9540113e-05
ExecutionTime = 2.442484 s  ClockTime = 2 s

Time = 12s

smoothSolver:  Solving for Ux, Initial residual = 0.049823596, Final residual = 0.0049527174, No Iterations 2
smoothSolver:  Solving for Uy, Initial residual = 0.14987109, Final residual = 0.011740757, No Iterations 2
smoothSolver:  Solving for Uz, Initial residual = 0.096164951, Final residual = 0.0034310042, No Iterations 3
GAMG:  Solving for p, Initial residual = 0.164608, Final residual = 0.0011881469, No Iterations 5
time step continuity errors : sum local = 0.0016905707, global = -5.2488438e-06, cumulative = -2.4788957e-05
ExecutionTime = 2.624522 s  ClockTime = 2 s

Time = 13s

smoothSolver:  Solving for Ux, Initial residual = 0.035545726, Final residual = 0.0031097261, No Iterations 2
smoothSolver:  Solving for Uy, Initial residual = 0.31209126, Final residual = 0.025893156, No Iterations 2
smoothSolver:  Solving for Uz, Initial residual = 0.020694783, Final residual = 0.00066493693, No Iterations 3
GAMG:  Solving for p, Initial residual = 0.27696643, Final residual = 0.0011527805, No Iterations 6
time step continuity errors : sum local = 0.00052579242, global = 1.3924981e-05, cumulative = -1.0863975e-05
ExecutionTime = 2.814722 s  ClockTime = 2 s

Time = 14s

smoothSolver:  Solving for Ux, Initial residual = 0.03967038, Final residual = 0.0034275843, No Iterations 2
smoothSolver:  Solving for Uy, Initial residual = 0.33327438, Final residual = 0.025421823, No Iterations 2
smoothSolver:  Solving for Uz, Initial residual = 0.047770976, Final residual = 0.001689185, No Iterations 3
GAMG:  Solving for p, Initial residual = 0.28093368, Final residual = 0.0019527777, No Iterations 4
time step continuity errors : sum local = 0.0013967781, global = 1.0820579e-05, cumulative = -4.3396098e-08
ExecutionTime = 2.986784 s  ClockTime = 3 s

Time = 15s

smoothSolver:  Solving for Ux, Initial residual = 0.036231526, Final residual = 0.0033787562, No Iterations 2
smoothSolver:  Solving for Uy, Initial residual = 0.18170613, Final residual = 0.012720917, No Iterations 2
smoothSolver:  Solving for Uz, Initial residual = 0.066313309, Final residual = 0.0023475194, No Iterations 3
GAMG:  Solving for p, Initial residual = 0.21177517, Final residual = 0.0017541481, No Iterations 4
time step continuity errors : sum local = 0.0015309265, global = -1.1095146e-05, cumulative = -1.1138542e-05
ExecutionTime = 3.157705 s  ClockTime = 3 s

Time = 16s

smoothSolver:  Solving for Ux, Initial residual = 0.025309101, Final residual = 0.0025119293, No Iterations 2
smoothSolver:  Solving for Uy, Initial residual = 0.1480043, Final residual = 0.01259369, No Iterations 2
smoothSolver:  Solving for Uz, Initial residual = 0.041801106, Final residual = 0.0014714981, No Iterations 3
GAMG:  Solving for p, Initial residual = 0.17073306, Final residual = 0.0014355085, No Iterations 5
time step continuity errors : sum local = 0.00081208322, global = 2.9811057e-06, cumulative = -8.1574361e-06
ExecutionTime = 3.337405 s  ClockTime = 3 s

Time = 17s

smoothSolver:  Solving for Ux, Initial residual = 0.020262769, Final residual = 0.0017369313, No Iterations 2
smoothSolver:  Solving for Uy, Initial residual = 0.27456282, Final residual = 0.023146355, No Iterations 2
smoothSolver:  Solving for Uz, Initial residual = 0.008968371, Final residual = 0.00082549962, No Iterations 2
GAMG:  Solving for p, Initial residual = 0.42565827, Final residual = 0.0035143657, No Iterations 5
time step continuity errors : sum local = 0.00056008866, global = 2.0205128e-06, cumulative = -6.1369233e-06
ExecutionTime = 3.516322 s  ClockTime = 3 s

Time = 18s

smoothSolver:  Solving for Ux, Initial residual = 0.021318204, Final residual = 0.0019271055, No Iterations 2
smoothSolver:  Solving for Uy, Initial residual = 0.23910407, Final residual = 0.018644682, No Iterations 2
smoothSolver:  Solving for Uz, Initial residual = 0.028268756, Final residual = 0.0010196154, No Iterations 3
GAMG:  Solving for p, Initial residual = 0.21786984, Final residual = 0.001225805, No Iterations 4
time step continuity errors : sum local = 0.0005506229, global = -4.3506418e-06, cumulative = -1.0487565e-05
ExecutionTime = 3.688017 s  ClockTime = 3 s

Time = 19s

smoothSolver:  Solving for Ux, Initial residual = 0.016917161, Final residual = 0.0016385892, No Iterations 2
smoothSolver:  Solving for Uy, Initial residual = 0.13287677, Final residual = 0.0099993527, No Iterations 2
smoothSolver:  Solving for Uz, Initial residual = 0.030071706, Final residual = 0.0010826036, No Iterations 3
GAMG:  Solving for p, Initial residual = 0.17040995, Final residual = 0.00071777871, No Iterations 5
time step continuity errors : sum local = 0.00033691132, global = 9.9286144e-08, cumulative = -1.0388279e-05
ExecutionTime = 3.868855 s  ClockTime = 4 s

Time = 20s

smoothSolver:  Solving for Ux, Initial residual = 0.012195231, Final residual = 0.00038767295, No Iterations 3
smoothSolver:  Solving for Uy, Initial residual = 0.13516309, Final residual = 0.012230805, No Iterations 2
smoothSolver:  Solving for Uz, Initial residual = 0.015238904, Final residual = 0.00054815842, No Iterations 3
GAMG:  Solving for p, Initial residual = 0.1276058, Final residual = 0.0012500743, No Iterations 5
time step continuity errors : sum local = 0.00037348598, global = -2.2597144e-06, cumulative = -1.2647993e-05
ExecutionTime = 4.050716 s  ClockTime = 4 s

Time = 21s

smoothSolver:  Solving for Ux, Initial residual = 0.010468565, Final residual = 0.00092948886, No Iterations 2
smoothSolver:  Solving for Uy, Initial residual = 0.18953067, Final residual = 0.016397904, No Iterations 2
smoothSolver:  Solving for Uz, Initial residual = 0.005513015, Final residual = 0.00052687465, No Iterations 2
GAMG:  Solving for p, Initial residual = 0.33071661, Final residual = 0.0020238236, No Iterations 5
time step continuity errors : sum local = 0.00022630379, global = -8.7299335e-07, cumulative = -1.3520987e-05
ExecutionTime = 4.229863 s  ClockTime = 4 s

Time = 22s

smoothSolver:  Solving for Ux, Initial residual = 0.009793925, Final residual = 0.00087741059, No Iterations 2
smoothSolver:  Solving for Uy, Initial residual = 0.14628235, Final residual = 0.011758615, No Iterations 2
smoothSolver:  Solving for Uz, Initial residual = 0.013515074, Final residual = 0.00046996639, No Iterations 3
GAMG:  Solving for p, Initial residual = 0.21227135, Final residual = 0.0014145614, No Iterations 4
time step continuity errors : sum local = 0.00031526118, global = -3.833985e-06, cumulative = -1.7354972e-05
ExecutionTime = 4.400383 s  ClockTime = 4 s

Time = 23s

smoothSolver:  Solving for Ux, Initial residual = 0.0073375374, Final residual = 0.00069688158, No Iterations 2
smoothSolver:  Solving for Uy, Initial residual = 0.082035753, Final residual = 0.0065537826, No Iterations 2
smoothSolver:  Solving for Uz, Initial residual = 0.012750925, Final residual = 0.00044250676, No Iterations 3
GAMG:  Solving for p, Initial residual = 0.16645778, Final residual = 0.00083595476, No Iterations 5
time step continuity errors : sum local = 0.00017593405, global = 2.2713179e-07, cumulative = -1.712784e-05
ExecutionTime = 4.581393 s  ClockTime = 4 s

Time = 24s

smoothSolver:  Solving for Ux, Initial residual = 0.00574208, Final residual = 0.00054927953, No Iterations 2
smoothSolver:  Solving for Uy, Initial residual = 0.094223629, Final residual = 0.008656492, No Iterations 2
smoothSolver:  Solving for Uz, Initial residual = 0.0051591592, Final residual = 0.00016667638, No Iterations 3
GAMG:  Solving for p, Initial residual = 0.14154604, Final residual = 0.00056015677, No Iterations 6
time step continuity errors : sum local = 6.5816468e-05, global = -1.6927516e-06, cumulative = -1.8820592e-05
ExecutionTime = 4.771451 s  ClockTime = 4 s

Time = 25s

smoothSolver:  Solving for Ux, Initial residual = 0.0058849676, Final residual = 0.00054922782, No Iterations 2
smoothSolver:  Solving for Uy, Initial residual = 0.11133559, Final residual = 0.0097860592, No Iterations 2
smoothSolver:  Solving for Uz, Initial residual = 0.0054598691, Final residual = 0.00019002869, No Iterations 3
GAMG:  Solving for p, Initial residual = 0.13357438, Final residual = 0.00059519679, No Iterations 5
time step continuity errors : sum local = 8.8145287e-05, global = 1.5451887e-08, cumulative = -1.880514e-05
ExecutionTime = 4.950901 s  ClockTime = 5 s

Time = 26s

smoothSolver:  Solving for Ux, Initial residual = 0.0054666402, Final residual = 0.00053125889, No Iterations 2
smoothSolver:  Solving for Uy, Initial residual = 0.080937565, Final residual = 0.0068917894, No Iterations 2
smoothSolver:  Solving for Uz, Initial residual = 0.0078043106, Final residual = 0.00028232298, No Iterations 3
GAMG:  Solving for p, Initial residual = 0.11593507, Final residual = 0.00091102375, No Iterations 4
time step continuity errors : sum local = 0.00017264549, global = 5.8719987e-07, cumulative = -1.821794e-05
ExecutionTime = 5.120855 s  ClockTime = 5 s

Time = 27s

smoothSolver:  Solving for Ux, Initial residual = 0.0043412334, Final residual = 0.0001417555, No Iterations 3
smoothSolver:  Solving for Uy, Initial residual = 0.052709258, Final residual = 0.0048613671, No Iterations 2
smoothSolver:  Solving for Uz, Initial residual = 0.0065614889, Final residual = 0.00023531619, No Iterations 3
GAMG:  Solving for p, Initial residual = 0.082907045, Final residual = 0.00051361361, No Iterations 5
time step continuity errors : sum local = 8.9729486e-05, global = -3.9908541e-07, cumulative = -1.8617025e-05
ExecutionTime = 5.301115 s  ClockTime = 5 s

Time = 28s

smoothSolver:  Solving for Ux, Initial residual = 0.003955362, Final residual = 0.0001259124, No Iterations 3
smoothSolver:  Solving for Uy, Initial residual = 0.061311944, Final residual = 0.0058312977, No Iterations 2
smoothSolver:  Solving for Uz, Initial residual = 0.0040212374, Final residual = 0.00013697049, No Iterations 3
GAMG:  Solving for p, Initial residual = 0.063238167, Final residual = 0.00058267206, No Iterations 5
time step continuity errors : sum local = 7.4968657e-05, global = -5.6569722e-07, cumulative = -1.9182722e-05
ExecutionTime = 5.481212 s  ClockTime = 5 s

Time = 29s

smoothSolver:  Solving for Ux, Initial residual = 0.0035365784, Final residual = 0.00033964843, No Iterations 2
smoothSolver:  Solving for Uy, Initial residual = 0.062362333, Final residual = 0.0056884399, No Iterations 2
smoothSolver:  Solving for Uz, Initial residual = 0.003108127, Final residual = 9.8668707e-05, No Iterations 3
GAMG:  Solving for p, Initial residual = 0.12329965, Final residual = 0.0010326014, No Iterations 4
time step continuity errors : sum local = 9.2253883e-05, global = 6.9485029e-07, cumulative = -1.8487872e-05
ExecutionTime = 5.650942 s  ClockTime = 5 s

Time = 30s

smoothSolver:  Solving for Ux, Initial residual = 0.0028383098, Final residual = 0.00027206414, No Iterations 2
smoothSolver:  Solving for Uy, Initial residual = 0.045107484, Final residual = 0.0041189745, No Iterations 2
smoothSolver:  Solving for Uz, Initial residual = 0.0033633224, Final residual = 0.00010894138, No Iterations 3
GAMG:  Solving for p, Initial residual = 0.10827188, Final residual = 0.00086510596, No Iterations 4
time step continuity errors : sum local = 8.6429225e-05, global = -2.9779186e-07, cumulative = -1.8785664e-05
ExecutionTime = 5.823946 s  ClockTime = 5 s

Time = 31s

smoothSolver:  Solving for Ux, Initial residual = 0.0024581295, Final residual = 7.6885772e-05, No Iterations 3
smoothSolver:  Solving for Uy, Initial residual = 0.035802627, Final residual = 0.0035247552, No Iterations 2
smoothSolver:  Solving for Uz, Initial residual = 0.0028930169, Final residual = 9.3386325e-05, No Iterations 3
GAMG:  Solving for p, Initial residual = 0.078018661, Final residual = 0.00047255689, No Iterations 5
time step continuity errors : sum local = 4.1895332e-05, global = 1.0190516e-07, cumulative = -1.8683759e-05
ExecutionTime = 6.003884 s  ClockTime = 6 s

Time = 32s

smoothSolver:  Solving for Ux, Initial residual = 0.0026249508, Final residual = 8.3779678e-05, No Iterations 3
smoothSolver:  Solving for Uy, Initial residual = 0.040589082, Final residual = 0.0039967643, No Iterations 2
smoothSolver:  Solving for Uz, Initial residual = 0.0030712233, Final residual = 0.00010310532, No Iterations 3
GAMG:  Solving for p, Initial residual = 0.044838244, Final residual = 0.00028433741, No Iterations 5
time step continuity errors : sum local = 3.0694426e-05, global = 1.0780084e-07, cumulative = -1.8575958e-05
ExecutionTime = 6.186947 s  ClockTime = 6 s

Time = 33s

smoothSolver:  Solving for Ux, Initial residual = 0.0026567885, Final residual = 8.5897684e-05, No Iterations 3
smoothSolver:  Solving for Uy, Initial residual = 0.038855086, Final residual = 0.0037809522, No Iterations 2
smoothSolver:  Solving for Uz, Initial residual = 0.0035385259, Final residual = 0.00012239138, No Iterations 3
GAMG:  Solving for p, Initial residual = 0.046528578, Final residual = 0.00030947855, No Iterations 4
time step continuity errors : sum local = 3.8669518e-05, global = -1.7755294e-07, cumulative = -1.8753511e-05
ExecutionTime = 6.359287 s  ClockTime = 6 s

Time = 34s

smoothSolver:  Solving for Ux, Initial residual = 0.0024331326, Final residual = 8.1021524e-05, No Iterations 3
smoothSolver:  Solving for Uy, Initial residual = 0.031269551, Final residual = 0.0009857095, No Iterations 3
smoothSolver:  Solving for Uz, Initial residual = 0.003576572, Final residual = 0.00012443985, No Iterations 3
GAMG:  Solving for p, Initial residual = 0.040331234, Final residual = 0.0003535734, No Iterations 4
time step continuity errors : sum local = 4.5507734e-05, global = 4.1981103e-07, cumulative = -1.83337e-05
ExecutionTime = 6.535177 s  ClockTime = 6 s

Time = 35s

smoothSolver:  Solving for Ux, Initial residual = 0.0022656113, Final residual = 7.6318885e-05, No Iterations 3
smoothSolver:  Solving for Uy, Initial residual = 0.028260976, Final residual = 0.00092550478, No Iterations 3
smoothSolver:  Solving for Uz, Initial residual = 0.0032448752, Final residual = 0.00011174937, No Iterations 3
GAMG:  Solving for p, Initial residual = 0.029554468, Final residual = 0.00016978776, No Iterations 5
time step continuity errors : sum local = 2.0721203e-05, global = -1.515688e-07, cumulative = -1.8485269e-05
ExecutionTime = 6.719066 s  ClockTime = 6 s

Time = 36s

smoothSolver:  Solving for Ux, Initial residual = 0.0021743464, Final residual = 7.1974386e-05, No Iterations 3
smoothSolver:  Solving for Uy, Initial residual = 0.028809149, Final residual = 0.00092815496, No Iterations 3
smoothSolver:  Solving for Uz, Initial residual = 0.0028565718, Final residual = 9.6748149e-05, No Iterations 3
GAMG:  Solving for p, Initial residual = 0.030765831, Final residual = 0.00029854183, No Iterations 4
time step continuity errors : sum local = 3.3395802e-05, global = 5.1499621e-07, cumulative = -1.7970272e-05
ExecutionTime = 6.893286 s  ClockTime = 7 s

Time = 37s

smoothSolver:  Solving for Ux, Initial residual = 0.0020349871, Final residual = 6.6961711e-05, No Iterations 3
smoothSolver:  Solving for Uy, Initial residual = 0.026827008, Final residual = 0.00086544459, No Iterations 3
smoothSolver:  Solving for Uz, Initial residual = 0.0026486138, Final residual = 8.887012e-05, No Iterations 3
GAMG:  Solving for p, Initial residual = 0.036177656, Final residual = 0.00019912046, No Iterations 4
time step continuity errors : sum local = 2.1018874e-05, global = 1.1970045e-07, cumulative = -1.7850572e-05
ExecutionTime = 7.06536 s  ClockTime = 7 s

Time = 38s

smoothSolver:  Solving for Ux, Initial residual = 0.0019178442, Final residual = 6.3906129e-05, No Iterations 3
smoothSolver:  Solving for Uy, Initial residual = 0.024181385, Final residual = 0.00080382473, No Iterations 3
smoothSolver:  Solving for Uz, Initial residual = 0.002591851, Final residual = 8.7110316e-05, No Iterations 3
GAMG:  Solving for p, Initial residual = 0.032149478, Final residual = 0.00020836489, No Iterations 4
time step continuity errors : sum local = 2.1957554e-05, global = -1.1847343e-07, cumulative = -1.7969045e-05
ExecutionTime = 7.239041 s  ClockTime = 7 s

Time = 39s

smoothSolver:  Solving for Ux, Initial residual = 0.0018932689, Final residual = 6.3705123e-05, No Iterations 3
smoothSolver:  Solving for Uy, Initial residual = 0.023720457, Final residual = 0.00079894916, No Iterations 3
smoothSolver:  Solving for Uz, Initial residual = 0.0026209828, Final residual = 8.8819937e-05, No Iterations 3
GAMG:  Solving for p, Initial residual = 0.025055363, Final residual = 0.00019396157, No Iterations 4
time step continuity errors : sum local = 2.1214883e-05, global = -2.1909403e-07, cumulative = -1.8188139e-05
ExecutionTime = 7.412421 s  ClockTime = 7 s

Time = 40s

smoothSolver:  Solving for Ux, Initial residual = 0.0018879361, Final residual = 6.3823589e-05, No Iterations 3
smoothSolver:  Solving for Uy, Initial residual = 0.023677339, Final residual = 0.00079503658, No Iterations 3
smoothSolver:  Solving for Uz, Initial residual = 0.0026835684, Final residual = 9.1828674e-05, No Iterations 3
GAMG:  Solving for p, Initial residual = 0.022719818, Final residual = 0.00012429606, No Iterations 4
time step continuity errors : sum local = 1.420485e-05, global = -8.2810992e-08, cumulative = -1.827095e-05
ExecutionTime = 7.587062 s  ClockTime = 7 s

Time = 41s

smoothSolver:  Solving for Ux, Initial residual = 0.0018436246, Final residual = 6.2735618e-05, No Iterations 3
smoothSolver:  Solving for Uy, Initial residual = 0.022562164, Final residual = 0.00076250642, No Iterations 3
smoothSolver:  Solving for Uz, Initial residual = 0.0027019567, Final residual = 9.2987691e-05, No Iterations 3
GAMG:  Solving for p, Initial residual = 0.022086209, Final residual = 0.00010875817, No Iterations 4
time step continuity errors : sum local = 1.274348e-05, global = 1.8048188e-07, cumulative = -1.8090469e-05
ExecutionTime = 7.76068 s  ClockTime = 7 s

Time = 42s

smoothSolver:  Solving for Ux, Initial residual = 0.0017836472, Final residual = 6.1030621e-05, No Iterations 3
smoothSolver:  Solving for Uy, Initial residual = 0.021328841, Final residual = 0.000728842, No Iterations 3
smoothSolver:  Solving for Uz, Initial residual = 0.0026461771, Final residual = 9.1123688e-05, No Iterations 3
GAMG:  Solving for p, Initial residual = 0.020443987, Final residual = 0.00012017208, No Iterations 4
time step continuity errors : sum local = 1.4098458e-05, global = 1.321903e-07, cumulative = -1.7958278e-05
ExecutionTime = 7.93486 s  ClockTime = 8 s

Time = 43s

smoothSolver:  Solving for Ux, Initial residual = 0.0017342413, Final residual = 5.9329584e-05, No Iterations 3
smoothSolver:  Solving for Uy, Initial residual = 0.020683725, Final residual = 0.00070849871, No Iterations 3
smoothSolver:  Solving for Uz, Initial residual = 0.0025434354, Final residual = 8.7339298e-05, No Iterations 3
GAMG:  Solving for p, Initial residual = 0.019497023, Final residual = 0.00011430017, No Iterations 4
time step continuity errors : sum local = 1.3209861e-05, global = 1.6173651e-07, cumulative = -1.7796542e-05
ExecutionTime = 8.108625 s  ClockTime = 8 s

Time = 44s

smoothSolver:  Solving for Ux, Initial residual = 0.0016909965, Final residual = 5.7730982e-05, No Iterations 3
smoothSolver:  Solving for Uy, Initial residual = 0.02016742, Final residual = 0.00068999455, No Iterations 3
smoothSolver:  Solving for Uz, Initial residual = 0.0024469778, Final residual = 8.3788394e-05, No Iterations 3
GAMG:  Solving for p, Initial residual = 0.019956012, Final residual = 8.9024525e-05, No Iterations 4
time step continuity errors : sum local = 1.0123102e-05, global = 6.3324025e-08, cumulative = -1.7733218e-05
ExecutionTime = 8.282411 s  ClockTime = 8 s

Time = 45s

smoothSolver:  Solving for Ux, Initial residual = 0.0016506292, Final residual = 5.6398328e-05, No Iterations 3
smoothSolver:  Solving for Uy, Initial residual = 0.019527519, Final residual = 0.00067012425, No Iterations 3
smoothSolver:  Solving for Uz, Initial residual = 0.0023836122, Final residual = 8.1573094e-05, No Iterations 3
GAMG:  Solving for p, Initial residual = 0.019867584, Final residual = 0.00012641381, No Iterations 3
time step continuity errors : sum local = 1.4282274e-05, global = -3.2468213e-08, cumulative = -1.7765686e-05
ExecutionTime = 8.446571 s  ClockTime = 8 s

Time = 46s

smoothSolver:  Solving for Ux, Initial residual = 0.0016204695, Final residual = 5.5511725e-05, No Iterations 3
smoothSolver:  Solving for Uy, Initial residual = 0.019004489, Final residual = 0.00065481996, No Iterations 3
smoothSolver:  Solving for Uz, Initial residual = 0.0023484396, Final residual = 8.0506433e-05, No Iterations 3
GAMG:  Solving for p, Initial residual = 0.018804839, Final residual = 0.00016361585, No Iterations 3
time step continuity errors : sum local = 1.8570515e-05, global = -1.3770951e-07, cumulative = -1.7903395e-05
ExecutionTime = 8.611286 s  ClockTime = 8 s

Time = 47s

smoothSolver:  Solving for Ux, Initial residual = 0.0015960407, Final residual = 5.4805392e-05, No Iterations 3
smoothSolver:  Solving for Uy, Initial residual = 0.01861484, Final residual = 0.00064241424, No Iterations 3
smoothSolver:  Solving for Uz, Initial residual = 0.0023290025, Final residual = 8.0067368e-05, No Iterations 3
GAMG:  Solving for p, Initial residual = 0.017738022, Final residual = 0.00015290013, No Iterations 3
time step continuity errors : sum local = 1.7540331e-05, global = -1.0527756e-07, cumulative = -1.8008673e-05
ExecutionTime = 8.774818 s  ClockTime = 8 s

Time = 48s

smoothSolver:  Solving for Ux, Initial residual = 0.0015703508, Final residual = 5.4042893e-05, No Iterations 3
smoothSolver:  Solving for Uy, Initial residual = 0.018170344, Final residual = 0.00062775813, No Iterations 3
smoothSolver:  Solving for Uz, Initial residual = 0.0023107157, Final residual = 7.9655481e-05, No Iterations 3
GAMG:  Solving for p, Initial residual = 0.017097668, Final residual = 0.00011945479, No Iterations 3
time step continuity errors : sum local = 1.3848775e-05, global = 7.7860917e-09, cumulative = -1.8000887e-05
ExecutionTime = 8.937515 s  ClockTime = 9 s

Time = 49s

smoothSolver:  Solving for Ux, Initial residual = 0.0015417707, Final residual = 5.3166376e-05, No Iterations 3
smoothSolver:  Solving for Uy, Initial residual = 0.017645391, Final residual = 0.00061097599, No Iterations 3
smoothSolver:  Solving for Uz, Initial residual = 0.0022820679, Final residual = 7.8799199e-05, No Iterations 3
GAMG:  Solving for p, Initial residual = 0.016625184, Final residual = 0.0001371026, No Iterations 3
time step continuity errors : sum local = 1.5989458e-05, global = 2.4384633e-07, cumulative = -1.7757041e-05
ExecutionTime = 9.101479 s  ClockTime = 9 s

Time = 50s

smoothSolver:  Solving for Ux, Initial residual = 0.0015141841, Final residual = 5.2291194e-05, No Iterations 3
smoothSolver:  Solving for Uy, Initial residual = 0.01715061, Final residual = 0.00059493882, No Iterations 3
smoothSolver:  Solving for Uz, Initial residual = 0.0022448108, Final residual = 7.7573273e-05, No Iterations 3
GAMG:  Solving for p, Initial residual = 0.016203293, Final residual = 0.00015943063, No Iterations 3
time step continuity errors : sum local = 1.8631334e-05, global = 2.0904223e-07, cumulative = -1.7547998e-05
ExecutionTime = 9.26591 s  ClockTime = 9 s

Time = 51s

smoothSolver:  Solving for Ux, Initial residual = 0.0014887441, Final residual = 5.1434742e-05, No Iterations 3
smoothSolver:  Solving for Uy, Initial residual = 0.016725773, Final residual = 0.00058080897, No Iterations 3
smoothSolver:  Solving for Uz, Initial residual = 0.002199933, Final residual = 7.6017815e-05, No Iterations 3
GAMG:  Solving for p, Initial residual = 0.015949799, Final residual = 0.00015722117, No Iterations 3
time step continuity errors : sum local = 1.8340105e-05, global = 1.8577893e-07, cumulative = -1.7362219e-05
ExecutionTime = 9.431093 s  ClockTime = 9 s

Time = 52s

smoothSolver:  Solving for Ux, Initial residual = 0.0014654626, Final residual = 5.064568e-05, No Iterations 3
smoothSolver:  Solving for Uy, Initial residual = 0.016340891, Final residual = 0.00056786213, No Iterations 3
smoothSolver:  Solving for Uz, Initial residual = 0.0021559782, Final residual = 7.449163e-05, No Iterations 3
GAMG:  Solving for p, Initial residual = 0.015801859, Final residual = 0.0001440307, No Iterations 3
time step continuity errors : sum local = 1.6764172e-05, global = 1.5524807e-07, cumulative = -1.7206971e-05
ExecutionTime = 9.598381 s  ClockTime = 9 s

Time = 53s

smoothSolver:  Solving for Ux, Initial residual = 0.001443906, Final residual = 4.9938445e-05, No Iterations 3
smoothSolver:  Solving for Uy, Initial residual = 0.015971777, Final residual = 0.00055568261, No Iterations 3
smoothSolver:  Solving for Uz, Initial residual = 0.0021185402, Final residual = 7.3227572e-05, No Iterations 3
GAMG:  Solving for p, Initial residual = 0.015561158, Final residual = 0.00010628106, No Iterations 3
time step continuity errors : sum local = 1.2369488e-05, global = 1.3817103e-07, cumulative = -1.70688e-05
ExecutionTime = 9.765499 s  ClockTime = 9 s

Time = 54s

smoothSolver:  Solving for Ux, Initial residual = 0.0014238056, Final residual = 4.9303816e-05, No Iterations 3
smoothSolver:  Solving for Uy, Initial residual = 0.01561725, Final residual = 0.00054398645, No Iterations 3
smoothSolver:  Solving for Uz, Initial residual = 0.0020878615, Final residual = 7.2239735e-05, No Iterations 3
GAMG:  Solving for p, Initial residual = 0.015193773, Final residual = 7.0603487e-05, No Iterations 3
time step continuity errors : sum local = 8.2384119e-06, global = 1.1073211e-07, cumulative = -1.6958068e-05
ExecutionTime = 9.928889 s  ClockTime = 10 s

Time = 55s

smoothSolver:  Solving for Ux, Initial residual = 0.0014046057, Final residual = 4.8699519e-05, No Iterations 3
smoothSolver:  Solving for Uy, Initial residual = 0.01526758, Final residual = 0.00053235135, No Iterations 3
smoothSolver:  Solving for Uz, Initial residual = 0.0020602499, Final residual = 7.1367181e-05, No Iterations 3
GAMG:  Solving for p, Initial residual = 0.014830819, Final residual = 8.1779317e-05, No Iterations 3
time step continuity errors : sum local = 9.5767611e-06, global = 1.0250174e-07, cumulative = -1.6855566e-05
ExecutionTime = 10.093462 s  ClockTime = 10 s

Time = 56s

smoothSolver:  Solving for Ux, Initial residual = 0.0013855308, Final residual = 4.8093591e-05, No Iterations 3
smoothSolver:  Solving for Uy, Initial residual = 0.0149182, Final residual = 0.00052064468, No Iterations 3
smoothSolver:  Solving for Uz, Initial residual = 0.0020339129, Final residual = 7.0536112e-05, No Iterations 3
GAMG:  Solving for p, Initial residual = 0.014509008, Final residual = 8.6051525e-05, No Iterations 3
time step continuity errors : sum local = 1.0114559e-05, global = 1.9172926e-07, cumulative = -1.6663837e-05
ExecutionTime = 10.256498 s  ClockTime = 10 s

Time = 57s

smoothSolver:  Solving for Ux, Initial residual = 0.0013669646, Final residual = 4.749858e-05, No Iterations 3
smoothSolver:  Solving for Uy, Initial residual = 0.014574255, Final residual = 0.00050906373, No Iterations 3
smoothSolver:  Solving for Uz, Initial residual = 0.0020077259, Final residual = 6.9701342e-05, No Iterations 3
GAMG:  Solving for p, Initial residual = 0.014218286, Final residual = 0.0001022655, No Iterations 3
time step continuity errors : sum local = 1.2060668e-05, global = 2.6924463e-07, cumulative = -1.6394593e-05
ExecutionTime = 10.421937 s  ClockTime = 10 s

Time = 58s

smoothSolver:  Solving for Ux, Initial residual = 0.001349185, Final residual = 4.6922717e-05, No Iterations 3
smoothSolver:  Solving for Uy, Initial residual = 0.014246757, Final residual = 0.00049809595, No Iterations 3
smoothSolver:  Solving for Uz, Initial residual = 0.0019810768, Final residual = 6.8835041e-05, No Iterations 3
GAMG:  Solving for p, Initial residual = 0.013965423, Final residual = 0.00012722893, No Iterations 3
time step continuity errors : sum local = 1.5043874e-05, global = 2.1920053e-07, cumulative = -1.6175392e-05
ExecutionTime = 10.586147 s  ClockTime = 10 s

Time = 59s

smoothSolver:  Solving for Ux, Initial residual = 0.0013322474, Final residual = 4.6363207e-05, No Iterations 3
smoothSolver:  Solving for Uy, Initial residual = 0.01394079, Final residual = 0.00048785254, No Iterations 3
smoothSolver:  Solving for Uz, Initial residual = 0.0019534386, Final residual = 6.7916448e-05, No Iterations 3
GAMG:  Solving for p, Initial residual = 0.01375615, Final residual = 0.00013147668, No Iterations 3
time step continuity errors : sum local = 1.5570714e-05, global = 1.7782797e-07, cumulative = -1.5997564e-05
ExecutionTime = 10.750384 s  ClockTime = 10 s

Time = 60s

smoothSolver:  Solving for Ux, Initial residual = 0.0013163722, Final residual = 4.5832255e-05, No Iterations 3
smoothSolver:  Solving for Uy, Initial residual = 0.013650924, Final residual = 0.00047806587, No Iterations 3
smoothSolver:  Solving for Uz, Initial residual = 0.0019253625, Final residual = 6.6974071e-05, No Iterations 3
GAMG:  Solving for p, Initial residual = 0.013581873, Final residual = 0.0001254461, No Iterations 3
time step continuity errors : sum local = 1.4871366e-05, global = 1.4034581e-07, cumulative = -1.5857218e-05
ExecutionTime = 10.91506 s  ClockTime = 11 s

Time = 61s

smoothSolver:  Solving for Ux, Initial residual = 0.0013014161, Final residual = 4.5329769e-05, No Iterations 3
smoothSolver:  Solving for Uy, Initial residual = 0.01337287, Final residual = 0.00046865869, No Iterations 3
smoothSolver:  Solving for Uz, Initial residual = 0.001898208, Final residual = 6.6066587e-05, No Iterations 3
GAMG:  Solving for p, Initial residual = 0.01341225, Final residual = 0.00011207719, No Iterations 3
time step continuity errors : sum local = 1.3301899e-05, global = 1.1710004e-07, cumulative = -1.5740118e-05
ExecutionTime = 11.078119 s  ClockTime = 11 s

Time = 62s

smoothSolver:  Solving for Ux, Initial residual = 0.0012871337, Final residual = 4.4850887e-05, No Iterations 3
smoothSolver:  Solving for Uy, Initial residual = 0.013102711, Final residual = 0.00045941397, No Iterations 3
smoothSolver:  Solving for Uz, Initial residual = 0.0018728127, Final residual = 6.5228306e-05, No Iterations 3
GAMG:  Solving for p, Initial residual = 0.013223745, Final residual = 9.3326689e-05, No Iterations 3
time step continuity errors : sum local = 1.1095831e-05, global = 1.2492803e-07, cumulative = -1.561519e-05
ExecutionTime = 11.241553 s  ClockTime = 11 s

Time = 63s

smoothSolver:  Solving for Ux, Initial residual = 0.0012734168, Final residual = 4.4391274e-05, No Iterations 3
smoothSolver:  Solving for Uy, Initial residual = 0.012839542, Final residual = 0.00045046247, No Iterations 3
smoothSolver:  Solving for Uz, Initial residual = 0.001849091, Final residual = 6.4453597e-05, No Iterations 3
GAMG:  Solving for p, Initial residual = 0.013022588, Final residual = 8.6250613e-05, No Iterations 3
time step continuity errors : sum local = 1.0277863e-05, global = 1.500035e-07, cumulative = -1.5465187e-05
ExecutionTime = 11.405858 s  ClockTime = 11 s

Time = 64s

smoothSolver:  Solving for Ux, Initial residual = 0.001260228, Final residual = 4.3945595e-05, No Iterations 3
smoothSolver:  Solving for Uy, Initial residual = 0.012583949, Final residual = 0.00044168895, No Iterations 3
smoothSolver:  Solving for Uz, Initial residual = 0.0018264263, Final residual = 6.3714687e-05, No Iterations 3
GAMG:  Solving for p, Initial residual = 0.012830587, Final residual = 9.2334937e-05, No Iterations 3
time step continuity errors : sum local = 1.1029881e-05, global = 1.835631e-07, cumulative = -1.5281624e-05
ExecutionTime = 11.569236 s  ClockTime = 11 s

Time = 65s

smoothSolver:  Solving for Ux, Initial residual = 0.001247458, Final residual = 4.3508515e-05, No Iterations 3
smoothSolver:  Solving for Uy, Initial residual = 0.012338076, Final residual = 0.00043317954, No Iterations 3
smoothSolver:  Solving for Uz, Initial residual = 0.0018043446, Final residual = 6.2991342e-05, No Iterations 3
GAMG:  Solving for p, Initial residual = 0.012655684, Final residual = 0.00010185545, No Iterations 3
time step continuity errors : sum local = 1.2195438e-05, global = 2.0442598e-07, cumulative = -1.5077198e-05
ExecutionTime = 11.732169 s  ClockTime = 11 s

Time = 66s

smoothSolver:  Solving for Ux, Initial residual = 0.0012350264, Final residual = 4.3075479e-05, No Iterations 3
smoothSolver:  Solving for Uy, Initial residual = 0.012102094, Final residual = 0.00042497768, No Iterations 3
smoothSolver:  Solving for Uz, Initial residual = 0.0017826456, Final residual = 6.2275273e-05, No Iterations 3
GAMG:  Solving for p, Initial residual = 0.012495891, Final residual = 0.00010780695, No Iterations 3
time step continuity errors : sum local = 1.2934871e-05, global = 2.0828731e-07, cumulative = -1.486891e-05
ExecutionTime = 11.898073 s  ClockTime = 12 s

Time = 67s

smoothSolver:  Solving for Ux, Initial residual = 0.0012229701, Final residual = 4.2651925e-05, No Iterations 3
smoothSolver:  Solving for Uy, Initial residual = 0.011874516, Final residual = 0.00041703034, No Iterations 3
smoothSolver:  Solving for Uz, Initial residual = 0.0017612764, Final residual = 6.1565237e-05, No Iterations 3
GAMG:  Solving for p, Initial residual = 0.012342219, Final residual = 0.00010811203, No Iterations 3
time step continuity errors : sum local = 1.2995408e-05, global = 1.9599181e-07, cumulative = -1.4672919e-05
ExecutionTime = 12.061839 s  ClockTime = 12 s

Time = 68s

smoothSolver:  Solving for Ux, Initial residual = 0.0012114422, Final residual = 4.2244599e-05, No Iterations 3
smoothSolver:  Solving for Uy, Initial residual = 0.011653925, Final residual = 0.00040934108, No Iterations 3
smoothSolver:  Solving for Uz, Initial residual = 0.00174027, Final residual = 6.0863874e-05, No Iterations 3
GAMG:  Solving for p, Initial residual = 0.012194594, Final residual = 0.00010425537, No Iterations 3
time step continuity errors : sum local = 1.2553259e-05, global = 1.7928112e-07, cumulative = -1.4493637e-05
ExecutionTime = 12.226059 s  ClockTime = 12 s

Time = 69s

smoothSolver:  Solving for Ux, Initial residual = 0.0012005757, Final residual = 4.186322e-05, No Iterations 3
smoothSolver:  Solving for Uy, Initial residual = 0.011440689, Final residual = 0.00040188421, No Iterations 3
smoothSolver:  Solving for Uz, Initial residual = 0.0017196863, Final residual = 6.0176428e-05, No Iterations 3
GAMG:  Solving for p, Initial residual = 0.01204789, Final residual = 9.8216843e-05, No Iterations 3
time step continuity errors : sum local = 1.1846249e-05, global = 1.598296e-07, cumulative = -1.4333808e-05
ExecutionTime = 12.390872 s  ClockTime = 12 s

Time = 70s

smoothSolver:  Solving for Ux, Initial residual = 0.0011904126, Final residual = 4.1506743e-05, No Iterations 3
smoothSolver:  Solving for Uy, Initial residual = 0.011234796, Final residual = 0.0003946991, No Iterations 3
smoothSolver:  Solving for Uz, Initial residual = 0.0016996435, Final residual = 5.9507236e-05, No Iterations 3
GAMG:  Solving for p, Initial residual = 0.01191167, Final residual = 9.2456315e-05, No Iterations 3
time step continuity errors : sum local = 1.1171163e-05, global = 1.4442172e-07, cumulative = -1.4189386e-05
ExecutionTime = 12.553216 s  ClockTime = 12 s

Time = 71s

smoothSolver:  Solving for Ux, Initial residual = 0.0011808542, Final residual = 4.1173331e-05, No Iterations 3
smoothSolver:  Solving for Uy, Initial residual = 0.011036368, Final residual = 0.00038773764, No Iterations 3
smoothSolver:  Solving for Uz, Initial residual = 0.0016801875, Final residual = 5.8857726e-05, No Iterations 3
GAMG:  Solving for p, Initial residual = 0.011783777, Final residual = 8.9318133e-05, No Iterations 3
time step continuity errors : sum local = 1.081189e-05, global = 1.376355e-07, cumulative = -1.4051751e-05
ExecutionTime = 12.716092 s  ClockTime = 12 s

Time = 72s

smoothSolver:  Solving for Ux, Initial residual = 0.0011718373, Final residual = 4.0857775e-05, No Iterations 3
smoothSolver:  Solving for Uy, Initial residual = 0.010844526, Final residual = 0.00038099461, No Iterations 3
smoothSolver:  Solving for Uz, Initial residual = 0.0016612888, Final residual = 5.8226477e-05, No Iterations 3
GAMG:  Solving for p, Initial residual = 0.011652242, Final residual = 8.9121468e-05, No Iterations 3
time step continuity errors : sum local = 1.0808275e-05, global = 1.4079545e-07, cumulative = -1.3910955e-05
ExecutionTime = 12.880449 s  ClockTime = 13 s

Time = 73s

smoothSolver:  Solving for Ux, Initial residual = 0.0011632875, Final residual = 4.0556431e-05, No Iterations 3
smoothSolver:  Solving for Uy, Initial residual = 0.010658938, Final residual = 0.00037452743, No Iterations 3
smoothSolver:  Solving for Uz, Initial residual = 0.0016429046, Final residual = 5.7611225e-05, No Iterations 3
GAMG:  Solving for p, Initial residual = 0.011521741, Final residual = 9.0326077e-05, No Iterations 3
time step continuity errors : sum local = 1.0974707e-05, global = 1.4939178e-07, cumulative = -1.3761563e-05
ExecutionTime = 13.043498 s  ClockTime = 13 s

Time = 74s

smoothSolver:  Solving for Ux, Initial residual = 0.0011551501, Final residual = 4.0266711e-05, No Iterations 3
smoothSolver:  Solving for Uy, Initial residual = 0.01047938, Final residual = 0.00036831127, No Iterations 3
smoothSolver:  Solving for Uz, Initial residual = 0.0016249925, Final residual = 5.7009898e-05, No Iterations 3
GAMG:  Solving for p, Initial residual = 0.011392251, Final residual = 9.1300229e-05, No Iterations 3
time step continuity errors : sum local = 1.1113266e-05, global = 1.5320026e-07, cumulative = -1.3608363e-05
ExecutionTime = 13.208357 s  ClockTime = 13 s

Time = 75s

smoothSolver:  Solving for Ux, Initial residual = 0.0011474088, Final residual = 3.9989397e-05, No Iterations 3
smoothSolver:  Solving for Uy, Initial residual = 0.010305105, Final residual = 0.00036229145, No Iterations 3
smoothSolver:  Solving for Uz, Initial residual = 0.0016075378, Final residual = 5.6422071e-05, No Iterations 3
GAMG:  Solving for p, Initial residual = 0.011271428, Final residual = 9.0774448e-05, No Iterations 3
time step continuity errors : sum local = 1.1068852e-05, global = 1.5956838e-07, cumulative = -1.3448795e-05
ExecutionTime = 13.372983 s  ClockTime = 13 s

Time = 76s

smoothSolver:  Solving for Ux, Initial residual = 0.0011401883, Final residual = 3.9730621e-05, No Iterations 3
smoothSolver:  Solving for Uy, Initial residual = 0.010136043, Final residual = 0.00035646531, No Iterations 3
smoothSolver:  Solving for Uz, Initial residual = 0.0015905178, Final residual = 5.5847561e-05, No Iterations 3
GAMG:  Solving for p, Initial residual = 0.011148166, Final residual = 8.952883e-05, No Iterations 3
time step continuity errors : sum local = 1.0935911e-05, global = 1.5198657e-07, cumulative = -1.3296808e-05
ExecutionTime = 13.537539 s  ClockTime = 13 s

Time = 77s

smoothSolver:  Solving for Ux, Initial residual = 0.0011335391, Final residual = 3.9491145e-05, No Iterations 3
smoothSolver:  Solving for Uy, Initial residual = 0.0099717724, Final residual = 0.00035080352, No Iterations 3
smoothSolver:  Solving for Uz, Initial residual = 0.0015739111, Final residual = 5.5285298e-05, No Iterations 3
GAMG:  Solving for p, Initial residual = 0.011032903, Final residual = 8.7430916e-05, No Iterations 3
time step continuity errors : sum local = 1.0698115e-05, global = 1.5482679e-07, cumulative = -1.3141981e-05
ExecutionTime = 13.701201 s  ClockTime = 13 s

Time = 78s

smoothSolver:  Solving for Ux, Initial residual = 0.0011274797, Final residual = 3.9271455e-05, No Iterations 3
smoothSolver:  Solving for Uy, Initial residual = 0.0098130839, Final residual = 0.00034533535, No Iterations 3
smoothSolver:  Solving for Uz, Initial residual = 0.0015576828, Final residual = 5.47341e-05, No Iterations 3
GAMG:  Solving for p, Initial residual = 0.010923019, Final residual = 8.6003239e-05, No Iterations 3
time step continuity errors : sum local = 1.054168e-05, global = 1.5812175e-07, cumulative = -1.298386e-05
ExecutionTime = 13.865014 s  ClockTime = 14 s

Time = 79s

smoothSolver:  Solving for Ux, Initial residual = 0.0011220512, Final residual = 3.9071606e-05, No Iterations 3
smoothSolver:  Solving for Uy, Initial residual = 0.0096608788, Final residual = 0.00034008534, No Iterations 3
smoothSolver:  Solving for Uz, Initial residual = 0.0015418164, Final residual = 5.419428e-05, No Iterations 3
GAMG:  Solving for p, Initial residual = 0.010820405, Final residual = 8.6018064e-05, No Iterations 3
time step continuity errors : sum local = 1.0561832e-05, global = 1.4697461e-07, cumulative = -1.2836885e-05
ExecutionTime = 14.027797 s  ClockTime = 14 s

Time = 80s

smoothSolver:  Solving for Ux, Initial residual = 0.0011171618, Final residual = 3.8888732e-05, No Iterations 3
smoothSolver:  Solving for Uy, Initial residual = 0.0095155574, Final residual = 0.00033506919, No Iterations 3
smoothSolver:  Solving for Uz, Initial residual = 0.0015263206, Final residual = 5.3666646e-05, No Iterations 3
GAMG:  Solving for p, Initial residual = 0.010723203, Final residual = 8.5832489e-05, No Iterations 3
time step continuity errors : sum local = 1.0557283e-05, global = 1.4385723e-07, cumulative = -1.2693028e-05
ExecutionTime = 14.191696 s  ClockTime = 14 s

Time = 81s

smoothSolver:  Solving for Ux, Initial residual = 0.0011127279, Final residual = 3.8721028e-05, No Iterations 3
smoothSolver:  Solving for Uy, Initial residual = 0.0093761166, Final residual = 0.00033024962, No Iterations 3
smoothSolver:  Solving for Uz, Initial residual = 0.0015111752, Final residual = 5.3150258e-05, No Iterations 3
GAMG:  Solving for p, Initial residual = 0.010631784, Final residual = 8.5287602e-05, No Iterations 3
time step continuity errors : sum local = 1.050835e-05, global = 1.4324657e-07, cumulative = -1.2549781e-05
ExecutionTime = 14.353692 s  ClockTime = 14 s

Time = 82s

smoothSolver:  Solving for Ux, Initial residual = 0.0011086468, Final residual = 3.8565515e-05, No Iterations 3
smoothSolver:  Solving for Uy, Initial residual = 0.0092414009, Final residual = 0.00032555435, No Iterations 3
smoothSolver:  Solving for Uz, Initial residual = 0.0014963711, Final residual = 5.2645286e-05, No Iterations 3
GAMG:  Solving for p, Initial residual = 0.010541789, Final residual = 8.471786e-05, No Iterations 3
time step continuity errors : sum local = 1.0456023e-05, global = 1.3492406e-07, cumulative = -1.2414857e-05
ExecutionTime = 14.521294 s  ClockTime = 14 s

Time = 83s

smoothSolver:  Solving for Ux, Initial residual = 0.0011048517, Final residual = 3.8420188e-05, No Iterations 3
smoothSolver:  Solving for Uy, Initial residual = 0.0091098879, Final residual = 0.00032096128, No Iterations 3
smoothSolver:  Solving for Uz, Initial residual = 0.0014819095, Final residual = 5.2151927e-05, No Iterations 3
GAMG:  Solving for p, Initial residual = 0.010449918, Final residual = 8.3634527e-05, No Iterations 3
time step continuity errors : sum local = 1.0339872e-05, global = 1.2845009e-07, cumulative = -1.2286407e-05
ExecutionTime = 14.685403 s  ClockTime = 14 s

Time = 84s

smoothSolver:  Solving for Ux, Initial residual = 0.0011013373, Final residual = 3.82847e-05, No Iterations 3
smoothSolver:  Solving for Uy, Initial residual = 0.0089803555, Final residual = 0.00031644869, No Iterations 3
smoothSolver:  Solving for Uz, Initial residual = 0.0014677772, Final residual = 5.1669239e-05, No Iterations 3
GAMG:  Solving for p, Initial residual = 0.010352468, Final residual = 8.192344e-05, No Iterations 3
time step continuity errors : sum local = 1.0145519e-05, global = 1.2265653e-07, cumulative = -1.216375e-05
ExecutionTime = 14.850773 s  ClockTime = 15 s

Time = 85s

smoothSolver:  Solving for Ux, Initial residual = 0.0010980341, Final residual = 3.8155498e-05, No Iterations 3
smoothSolver:  Solving for Uy, Initial residual = 0.0088534387, Final residual = 0.00031200781, No Iterations 3
smoothSolver:  Solving for Uz, Initial residual = 0.0014539556, Final residual = 5.1196276e-05, No Iterations 3
GAMG:  Solving for p, Initial residual = 0.010263498, Final residual = 8.0546888e-05, No Iterations 3
time step continuity errors : sum local = 9.9918654e-06, global = 1.1979634e-07, cumulative = -1.2043954e-05
ExecutionTime = 15.014408 s  ClockTime = 15 s

Time = 86s

smoothSolver:  Solving for Ux, Initial residual = 0.0010949026, Final residual = 3.8034743e-05, No Iterations 3
smoothSolver:  Solving for Uy, Initial residual = 0.0087289017, Final residual = 0.0003076291, No Iterations 3
smoothSolver:  Solving for Uz, Initial residual = 0.0014404351, Final residual = 5.0733917e-05, No Iterations 3
GAMG:  Solving for p, Initial residual = 0.010184674, Final residual = 7.9760815e-05, No Iterations 3
time step continuity errors : sum local = 9.9109613e-06, global = 1.184229e-07, cumulative = -1.1925531e-05
ExecutionTime = 15.177515 s  ClockTime = 15 s

Time = 87s

smoothSolver:  Solving for Ux, Initial residual = 0.0010920263, Final residual = 3.7923301e-05, No Iterations 3
smoothSolver:  Solving for Uy, Initial residual = 0.0086081206, Final residual = 0.00030334743, No Iterations 3
smoothSolver:  Solving for Uz, Initial residual = 0.0014272162, Final residual = 5.0281286e-05, No Iterations 3
GAMG:  Solving for p, Initial residual = 0.010114168, Final residual = 7.9513407e-05, No Iterations 3
time step continuity errors : sum local = 9.8967005e-06, global = 1.1721755e-07, cumulative = -1.1808314e-05
ExecutionTime = 15.343664 s  ClockTime = 15 s

Time = 88s

smoothSolver:  Solving for Ux, Initial residual = 0.0010894153, Final residual = 3.7820814e-05, No Iterations 3
smoothSolver:  Solving for Uy, Initial residual = 0.0084912297, Final residual = 0.00029920772, No Iterations 3
smoothSolver:  Solving for Uz, Initial residual = 0.0014142951, Final residual = 4.9838298e-05, No Iterations 3
GAMG:  Solving for p, Initial residual = 0.010042733, Final residual = 7.9504315e-05, No Iterations 3
time step continuity errors : sum local = 9.9119268e-06, global = 1.15299e-07, cumulative = -1.1693015e-05
ExecutionTime = 15.509476 s  ClockTime = 15 s

Time = 89s

smoothSolver:  Solving for Ux, Initial residual = 0.0010869806, Final residual = 3.7724563e-05, No Iterations 3
smoothSolver:  Solving for Uy, Initial residual = 0.0083794465, Final residual = 0.00029523471, No Iterations 3
smoothSolver:  Solving for Uz, Initial residual = 0.0014016545, Final residual = 4.9404608e-05, No Iterations 3
GAMG:  Solving for p, Initial residual = 0.0099717368, Final residual = 7.9406536e-05, No Iterations 3
time step continuity errors : sum local = 9.9158772e-06, global = 1.161288e-07, cumulative = -1.1576886e-05
ExecutionTime = 15.677612 s  ClockTime = 15 s

Time = 90s

smoothSolver:  Solving for Ux, Initial residual = 0.0010847148, Final residual = 3.7633661e-05, No Iterations 3
smoothSolver:  Solving for Uy, Initial residual = 0.0082710216, Final residual = 0.00029140281, No Iterations 3
smoothSolver:  Solving for Uz, Initial residual = 0.0013892795, Final residual = 4.8980178e-05, No Iterations 3
GAMG:  Solving for p, Initial residual = 0.0098966873, Final residual = 7.9214731e-05, No Iterations 3
time step continuity errors : sum local = 9.9078104e-06, global = 1.1538315e-07, cumulative = -1.1461503e-05
ExecutionTime = 15.844377 s  ClockTime = 16 s

Time = 91s

smoothSolver:  Solving for Ux, Initial residual = 0.0010825469, Final residual = 3.7546483e-05, No Iterations 3
smoothSolver:  Solving for Uy, Initial residual = 0.008164933, Final residual = 0.00028765061, No Iterations 3
smoothSolver:  Solving for Uz, Initial residual = 0.0013771682, Final residual = 4.8564586e-05, No Iterations 3
GAMG:  Solving for p, Initial residual = 0.0098222511, Final residual = 7.8668109e-05, No Iterations 3
time step continuity errors : sum local = 9.8550954e-06, global = 1.1294833e-07, cumulative = -1.1348554e-05
ExecutionTime = 16.013517 s  ClockTime = 16 s

Time = 92s

smoothSolver:  Solving for Ux, Initial residual = 0.0010804267, Final residual = 3.7461374e-05, No Iterations 3
smoothSolver:  Solving for Uy, Initial residual = 0.0080602643, Final residual = 0.0002839379, No Iterations 3
smoothSolver:  Solving for Uz, Initial residual = 0.0013653154, Final residual = 4.8157746e-05, No Iterations 3
GAMG:  Solving for p, Initial residual = 0.0097482251, Final residual = 7.7993988e-05, No Iterations 3
time step continuity errors : sum local = 9.78609e-06, global = 1.1027077e-07, cumulative = -1.1238284e-05
ExecutionTime = 16.177455 s  ClockTime = 16 s

Time = 93s

smoothSolver:  Solving for Ux, Initial residual = 0.0010784198, Final residual = 3.738052e-05, No Iterations 3
smoothSolver:  Solving for Uy, Initial residual = 0.0079571498, Final residual = 0.00028025776, No Iterations 3
smoothSolver:  Solving for Uz, Initial residual = 0.0013537032, Final residual = 4.7759754e-05, No Iterations 3
GAMG:  Solving for p, Initial residual = 0.0096791056, Final residual = 7.7433308e-05, No Iterations 3
time step continuity errors : sum local = 9.7310224e-06, global = 1.0718727e-07, cumulative = -1.1131096e-05
ExecutionTime = 16.348871 s  ClockTime = 16 s

Time = 94s

smoothSolver:  Solving for Ux, Initial residual = 0.0010765445, Final residual = 3.7305822e-05, No Iterations 3
smoothSolver:  Solving for Uy, Initial residual = 0.0078569436, Final residual = 0.00027664867, No Iterations 3
smoothSolver:  Solving for Uz, Initial residual = 0.001342337, Final residual = 4.7371313e-05, No Iterations 3
GAMG:  Solving for p, Initial residual = 0.0096177851, Final residual = 7.7075765e-05, No Iterations 3
time step continuity errors : sum local = 9.7012048e-06, global = 1.0856311e-07, cumulative = -1.1022533e-05
ExecutionTime = 16.513333 s  ClockTime = 16 s

Time = 95s

smoothSolver:  Solving for Ux, Initial residual = 0.0010748302, Final residual = 3.7237542e-05, No Iterations 3
smoothSolver:  Solving for Uy, Initial residual = 0.0077607949, Final residual = 0.00027312921, No Iterations 3
smoothSolver:  Solving for Uz, Initial residual = 0.0013312164, Final residual = 4.6990927e-05, No Iterations 3
GAMG:  Solving for p, Initial residual = 0.0095680724, Final residual = 7.7251949e-05, No Iterations 3
time step continuity errors : sum local = 9.7384589e-06, global = 1.0820611e-07, cumulative = -1.0914327e-05
ExecutionTime = 16.676544 s  ClockTime = 16 s

Time = 96s

smoothSolver:  Solving for Ux, Initial residual = 0.0010732957, Final residual = 3.7175549e-05, No Iterations 3
smoothSolver:  Solving for Uy, Initial residual = 0.0076682659, Final residual = 0.00026973243, No Iterations 3
smoothSolver:  Solving for Uz, Initial residual = 0.0013203303, Final residual = 4.6619e-05, No Iterations 3
GAMG:  Solving for p, Initial residual = 0.009513859, Final residual = 7.7553941e-05, No Iterations 3
time step continuity errors : sum local = 9.7915661e-06, global = 1.0776259e-07, cumulative = -1.0806565e-05
ExecutionTime = 16.842442 s  ClockTime = 17 s

Time = 97s

smoothSolver:  Solving for Ux, Initial residual = 0.0010718906, Final residual = 3.7120404e-05, No Iterations 3
smoothSolver:  Solving for Uy, Initial residual = 0.0075796408, Final residual = 0.00026643448, No Iterations 3
smoothSolver:  Solving for Uz, Initial residual = 0.0013096778, Final residual = 4.6255892e-05, No Iterations 3
GAMG:  Solving for p, Initial residual = 0.0094604895, Final residual = 7.7701987e-05, No Iterations 3
time step continuity errors : sum local = 9.8252267e-06, global = 1.070337e-07, cumulative = -1.0699531e-05
ExecutionTime = 17.006872 s  ClockTime = 17 s

Time = 98s

smoothSolver:  Solving for Ux, Initial residual = 0.0010705818, Final residual = 3.7070114e-05, No Iterations 3
smoothSolver:  Solving for Uy, Initial residual = 0.0074933298, Final residual = 0.00026320471, No Iterations 3
smoothSolver:  Solving for Uz, Initial residual = 0.001299258, Final residual = 4.5900858e-05, No Iterations 3
GAMG:  Solving for p, Initial residual = 0.0094093363, Final residual = 7.7751955e-05, No Iterations 3
time step continuity errors : sum local = 9.8463615e-06, global = 1.07457e-07, cumulative = -1.0592074e-05
ExecutionTime = 17.170542 s  ClockTime = 17 s

Time = 99s

smoothSolver:  Solving for Ux, Initial residual = 0.0010693511, Final residual = 3.7025112e-05, No Iterations 3
smoothSolver:  Solving for Uy, Initial residual = 0.0074088373, Final residual = 0.00026000206, No Iterations 3
smoothSolver:  Solving for Uz, Initial residual = 0.0012890512, Final residual = 4.5553913e-05, No Iterations 3
GAMG:  Solving for p, Initial residual = 0.0093596953, Final residual = 7.735958e-05, No Iterations 3
time step continuity errors : sum local = 9.8112148e-06, global = 1.0678868e-07, cumulative = -1.0485285e-05
ExecutionTime = 17.334787 s  ClockTime = 17 s

Time = 100s

smoothSolver:  Solving for Ux, Initial residual = 0.0010681791, Final residual = 3.6982581e-05, No Iterations 3
smoothSolver:  Solving for Uy, Initial residual = 0.0073256091, Final residual = 0.0002568598, No Iterations 3
smoothSolver:  Solving for Uz, Initial residual = 0.0012790411, Final residual = 4.5214113e-05, No Iterations 3
GAMG:  Solving for p, Initial residual = 0.0093072324, Final residual = 7.6713531e-05, No Iterations 3
time step continuity errors : sum local = 9.7436676e-06, global = 1.0482476e-07, cumulative = -1.038046e-05
ExecutionTime = 17.499046 s  ClockTime = 17 s

Time = 101s

smoothSolver:  Solving for Ux, Initial residual = 0.0010670596, Final residual = 3.6941772e-05, No Iterations 3
smoothSolver:  Solving for Uy, Initial residual = 0.0072437713, Final residual = 0.00025376582, No Iterations 3
smoothSolver:  Solving for Uz, Initial residual = 0.0012692055, Final residual = 4.4879867e-05, No Iterations 3
GAMG:  Solving for p, Initial residual = 0.0092472523, Final residual = 7.5926061e-05, No Iterations 3
time step continuity errors : sum local = 9.6578313e-06, global = 1.0350659e-07, cumulative = -1.0276954e-05
ExecutionTime = 17.663884 s  ClockTime = 17 s

Time = 102s

smoothSolver:  Solving for Ux, Initial residual = 0.0010659659, Final residual = 3.6903019e-05, No Iterations 3
smoothSolver:  Solving for Uy, Initial residual = 0.0071624738, Final residual = 0.00025072904, No Iterations 3
smoothSolver:  Solving for Uz, Initial residual = 0.0012595375, Final residual = 4.4551281e-05, No Iterations 3
GAMG:  Solving for p, Initial residual = 0.0091972367, Final residual = 7.5497006e-05, No Iterations 3
time step continuity errors : sum local = 9.6173396e-06, global = 1.012328e-07, cumulative = -1.0175721e-05
ExecutionTime = 17.827255 s  ClockTime = 18 s

Time = 103s

smoothSolver:  Solving for Ux, Initial residual = 0.0010649135, Final residual = 3.6868509e-05, No Iterations 3
smoothSolver:  Solving for Uy, Initial residual = 0.0070829076, Final residual = 0.00024775568, No Iterations 3
smoothSolver:  Solving for Uz, Initial residual = 0.001250044, Final residual = 4.4229807e-05, No Iterations 3
GAMG:  Solving for p, Initial residual = 0.0091611772, Final residual = 7.5312699e-05, No Iterations 3
time step continuity errors : sum local = 9.607812e-06, global = 9.9289703e-08, cumulative = -1.0076431e-05
ExecutionTime = 17.990731 s  ClockTime = 18 s

Time = 104s

smoothSolver:  Solving for Ux, Initial residual = 0.001063937, Final residual = 3.6837465e-05, No Iterations 3
smoothSolver:  Solving for Uy, Initial residual = 0.0070054306, Final residual = 0.00024486128, No Iterations 3
smoothSolver:  Solving for Uz, Initial residual = 0.0012407275, Final residual = 4.3915067e-05, No Iterations 3
GAMG:  Solving for p, Initial residual = 0.0091290302, Final residual = 7.5110804e-05, No Iterations 3
time step continuity errors : sum local = 9.5959596e-06, global = 9.7031314e-08, cumulative = -9.9794e-06
ExecutionTime = 18.160833 s  ClockTime = 18 s

Time = 105s

smoothSolver:  Solving for Ux, Initial residual = 0.001063052, Final residual = 3.6810715e-05, No Iterations 3
smoothSolver:  Solving for Uy, Initial residual = 0.00693026, Final residual = 0.00024205378, No Iterations 3
smoothSolver:  Solving for Uz, Initial residual = 0.0012316026, Final residual = 4.3607091e-05, No Iterations 3
GAMG:  Solving for p, Initial residual = 0.0090961973, Final residual = 7.4868288e-05, No Iterations 3
time step continuity errors : sum local = 9.5787068e-06, global = 9.5877114e-08, cumulative = -9.8835229e-06
ExecutionTime = 18.3267 s  ClockTime = 18 s

Time = 106s

smoothSolver:  Solving for Ux, Initial residual = 0.0010622834, Final residual = 3.6788674e-05, No Iterations 3
smoothSolver:  Solving for Uy, Initial residual = 0.0068580531, Final residual = 0.00023934188, No Iterations 3
smoothSolver:  Solving for Uz, Initial residual = 0.0012226662, Final residual = 4.330594e-05, No Iterations 3
GAMG:  Solving for p, Initial residual = 0.0090502649, Final residual = 7.4601876e-05, No Iterations 3
time step continuity errors : sum local = 9.5581085e-06, global = 9.3831939e-08, cumulative = -9.789691e-06
ExecutionTime = 18.491298 s  ClockTime = 18 s

Time = 107s

smoothSolver:  Solving for Ux, Initial residual = 0.0010616474, Final residual = 3.677124e-05, No Iterations 3
smoothSolver:  Solving for Uy, Initial residual = 0.0067883472, Final residual = 0.00023673877, No Iterations 3
smoothSolver:  Solving for Uz, Initial residual = 0.0012139278, Final residual = 4.3011567e-05, No Iterations 3
GAMG:  Solving for p, Initial residual = 0.0090036092, Final residual = 7.4353456e-05, No Iterations 3
time step continuity errors : sum local = 9.5396384e-06, global = 9.2634322e-08, cumulative = -9.6970566e-06
ExecutionTime = 18.656081 s  ClockTime = 18 s

Time = 108s

smoothSolver:  Solving for Ux, Initial residual = 0.0010611007, Final residual = 3.6757409e-05, No Iterations 3
smoothSolver:  Solving for Uy, Initial residual = 0.0067205341, Final residual = 0.00023421974, No Iterations 3
smoothSolver:  Solving for Uz, Initial residual = 0.0012053716, Final residual = 4.2723495e-05, No Iterations 3
GAMG:  Solving for p, Initial residual = 0.0089611783, Final residual = 7.412288e-05, No Iterations 3
time step continuity errors : sum local = 9.5233847e-06, global = 9.2575199e-08, cumulative = -9.6044814e-06
ExecutionTime = 18.81949 s  ClockTime = 19 s

Time = 109s

smoothSolver:  Solving for Ux, Initial residual = 0.001060634, Final residual = 3.6746417e-05, No Iterations 3
smoothSolver:  Solving for Uy, Initial residual = 0.0066539167, Final residual = 0.00023178429, No Iterations 3
smoothSolver:  Solving for Uz, Initial residual = 0.0011969868, Final residual = 4.2441263e-05, No Iterations 3
GAMG:  Solving for p, Initial residual = 0.008921452, Final residual = 7.3915304e-05, No Iterations 3
time step continuity errors : sum local = 9.5099959e-06, global = 9.1849071e-08, cumulative = -9.5126324e-06
ExecutionTime = 18.985267 s  ClockTime = 19 s

Time = 110s

smoothSolver:  Solving for Ux, Initial residual = 0.0010602565, Final residual = 3.6738175e-05, No Iterations 3
smoothSolver:  Solving for Uy, Initial residual = 0.0065885954, Final residual = 0.00022940725, No Iterations 3
smoothSolver:  Solving for Uz, Initial residual = 0.0011887677, Final residual = 4.2164612e-05, No Iterations 3
GAMG:  Solving for p, Initial residual = 0.0088889863, Final residual = 7.3751414e-05, No Iterations 3
time step continuity errors : sum local = 9.502264e-06, global = 9.0859539e-08, cumulative = -9.4217728e-06
ExecutionTime = 19.149177 s  ClockTime = 19 s

Time = 111s

smoothSolver:  Solving for Ux, Initial residual = 0.0010599749, Final residual = 3.6732718e-05, No Iterations 3
smoothSolver:  Solving for Uy, Initial residual = 0.0065245955, Final residual = 0.00022708252, No Iterations 3
smoothSolver:  Solving for Uz, Initial residual = 0.0011807091, Final residual = 4.1893225e-05, No Iterations 3
GAMG:  Solving for p, Initial residual = 0.0088540307, Final residual = 7.3644112e-05, No Iterations 3
time step continuity errors : sum local = 9.5018153e-06, global = 8.8380852e-08, cumulative = -9.333392e-06
ExecutionTime = 19.312918 s  ClockTime = 19 s

Time = 112s

smoothSolver:  Solving for Ux, Initial residual = 0.0010597282, Final residual = 3.6729543e-05, No Iterations 3
smoothSolver:  Solving for Uy, Initial residual = 0.0064618838, Final residual = 0.00022479929, No Iterations 3
smoothSolver:  Solving for Uz, Initial residual = 0.0011728028, Final residual = 4.1627768e-05, No Iterations 3
GAMG:  Solving for p, Initial residual = 0.0088198555, Final residual = 7.3608361e-05, No Iterations 3
time step continuity errors : sum local = 9.5105344e-06, global = 8.7110026e-08, cumulative = -9.246282e-06
ExecutionTime = 19.476619 s  ClockTime = 19 s

Time = 113s

smoothSolver:  Solving for Ux, Initial residual = 0.0010594841, Final residual = 3.6725677e-05, No Iterations 3
smoothSolver:  Solving for Uy, Initial residual = 0.0063999411, Final residual = 0.00022253901, No Iterations 3
smoothSolver:  Solving for Uz, Initial residual = 0.0011650308, Final residual = 4.1366851e-05, No Iterations 3
GAMG:  Solving for p, Initial residual = 0.008781528, Final residual = 7.356798e-05, No Iterations 3
time step continuity errors : sum local = 9.5185414e-06, global = 8.563178e-08, cumulative = -9.1606502e-06
ExecutionTime = 19.641626 s  ClockTime = 19 s

Time = 114s

smoothSolver:  Solving for Ux, Initial residual = 0.0010592493, Final residual = 3.6722831e-05, No Iterations 3
smoothSolver:  Solving for Uy, Initial residual = 0.006339016, Final residual = 0.00022030561, No Iterations 3
smoothSolver:  Solving for Uz, Initial residual = 0.0011573877, Final residual = 4.1110498e-05, No Iterations 3
GAMG:  Solving for p, Initial residual = 0.0087528662, Final residual = 7.3528959e-05, No Iterations 3
time step continuity errors : sum local = 9.5265399e-06, global = 8.4360522e-08, cumulative = -9.0762897e-06
ExecutionTime = 19.805508 s  ClockTime = 20 s

Time = 115s

smoothSolver:  Solving for Ux, Initial residual = 0.0010590709, Final residual = 3.6720955e-05, No Iterations 3
smoothSolver:  Solving for Uy, Initial residual = 0.0062783036, Final residual = 0.00021810918, No Iterations 3
smoothSolver:  Solving for Uz, Initial residual = 0.0011498712, Final residual = 4.0858606e-05, No Iterations 3
GAMG:  Solving for p, Initial residual = 0.008736387, Final residual = 7.3497264e-05, No Iterations 3
time step continuity errors : sum local = 9.5353454e-06, global = 8.3396876e-08, cumulative = -8.9928928e-06
ExecutionTime = 19.972318 s  ClockTime = 20 s

Time = 116s

smoothSolver:  Solving for Ux, Initial residual = 0.001058931, Final residual = 3.6721128e-05, No Iterations 3
smoothSolver:  Solving for Uy, Initial residual = 0.0062188776, Final residual = 0.00021595769, No Iterations 3
smoothSolver:  Solving for Uz, Initial residual = 0.0011424698, Final residual = 4.0610604e-05, No Iterations 3
GAMG:  Solving for p, Initial residual = 0.0087175984, Final residual = 7.3329327e-05, No Iterations 3
time step continuity errors : sum local = 9.5262877e-06, global = 8.2684819e-08, cumulative = -8.910208e-06
ExecutionTime = 20.135307 s  ClockTime = 20 s

Time = 117s

smoothSolver:  Solving for Ux, Initial residual = 0.0010587753, Final residual = 3.6722866e-05, No Iterations 3
smoothSolver:  Solving for Uy, Initial residual = 0.0061599553, Final residual = 0.00021380444, No Iterations 3
smoothSolver:  Solving for Uz, Initial residual = 0.0011351727, Final residual = 4.0365725e-05, No Iterations 3
GAMG:  Solving for p, Initial residual = 0.0086862322, Final residual = 7.2770586e-05, No Iterations 3
time step continuity errors : sum local = 9.4661937e-06, global = 8.1815611e-08, cumulative = -8.8283923e-06
ExecutionTime = 20.299005 s  ClockTime = 20 s

Time = 118s

smoothSolver:  Solving for Ux, Initial residual = 0.0010585315, Final residual = 3.672242e-05, No Iterations 3
smoothSolver:  Solving for Uy, Initial residual = 0.0060998054, Final residual = 0.00021160222, No Iterations 3
smoothSolver:  Solving for Uz, Initial residual = 0.0011279683, Final residual = 4.012285e-05, No Iterations 3
GAMG:  Solving for p, Initial residual = 0.0086431588, Final residual = 7.2130605e-05, No Iterations 3
time step continuity errors : sum local = 9.3952781e-06, global = 8.1429982e-08, cumulative = -8.7469624e-06
ExecutionTime = 20.463816 s  ClockTime = 20 s

Time = 119s

smoothSolver:  Solving for Ux, Initial residual = 0.0010581621, Final residual = 3.6718129e-05, No Iterations 3
smoothSolver:  Solving for Uy, Initial residual = 0.0060381239, Final residual = 0.000209362, No Iterations 3
smoothSolver:  Solving for Uz, Initial residual = 0.0011208543, Final residual = 3.9881972e-05, No Iterations 3
GAMG:  Solving for p, Initial residual = 0.0086057611, Final residual = 7.1690961e-05, No Iterations 3
time step continuity errors : sum local = 9.3501192e-06, global = 8.1390908e-08, cumulative = -8.6655715e-06
ExecutionTime = 20.626717 s  ClockTime = 20 s

Time = 120s

smoothSolver:  Solving for Ux, Initial residual = 0.0010577232, Final residual = 3.6712605e-05, No Iterations 3
smoothSolver:  Solving for Uy, Initial residual = 0.0059769089, Final residual = 0.00020713322, No Iterations 3
smoothSolver:  Solving for Uz, Initial residual = 0.0011138362, Final residual = 3.9644338e-05, No Iterations 3
GAMG:  Solving for p, Initial residual = 0.0085638524, Final residual = 7.1557016e-05, No Iterations 3
time step continuity errors : sum local = 9.3447047e-06, global = 8.0905307e-08, cumulative = -8.5846661e-06
ExecutionTime = 20.789723 s  ClockTime = 21 s

Time = 121s

smoothSolver:  Solving for Ux, Initial residual = 0.0010573049, Final residual = 3.6708308e-05, No Iterations 3
smoothSolver:  Solving for Uy, Initial residual = 0.0059172666, Final residual = 0.00020495878, No Iterations 3
smoothSolver:  Solving for Uz, Initial residual = 0.0011069324, Final residual = 3.941004e-05, No Iterations 3
GAMG:  Solving for p, Initial residual = 0.0085172975, Final residual = 7.1638467e-05, No Iterations 3
time step continuity errors : sum local = 9.3674228e-06, global = 7.9989755e-08, cumulative = -8.5046764e-06
ExecutionTime = 20.953511 s  ClockTime = 21 s

Time = 122s

smoothSolver:  Solving for Ux, Initial residual = 0.001057001, Final residual = 3.6706762e-05, No Iterations 3
smoothSolver:  Solving for Uy, Initial residual = 0.0058594706, Final residual = 0.00020287447, No Iterations 3
smoothSolver:  Solving for Uz, Initial residual = 0.0011001692, Final residual = 3.9180337e-05, No Iterations 3
GAMG:  Solving for p, Initial residual = 0.0084821278, Final residual = 7.1825148e-05, No Iterations 3
time step continuity errors : sum local = 9.4039668e-06, global = 8.0430001e-08, cumulative = -8.4242464e-06
ExecutionTime = 21.117955 s  ClockTime = 21 s

Time = 123s

smoothSolver:  Solving for Ux, Initial residual = 0.0010568433, Final residual = 3.6711015e-05, No Iterations 3
smoothSolver:  Solving for Uy, Initial residual = 0.0058054385, Final residual = 0.00020088457, No Iterations 3
smoothSolver:  Solving for Uz, Initial residual = 0.0010935421, Final residual = 3.8956115e-05, No Iterations 3
GAMG:  Solving for p, Initial residual = 0.0084516999, Final residual = 7.2026477e-05, No Iterations 3
time step continuity errors : sum local = 9.4427145e-06, global = 8.0440327e-08, cumulative = -8.3438061e-06
ExecutionTime = 21.281315 s  ClockTime = 21 s

Time = 124s

smoothSolver:  Solving for Ux, Initial residual = 0.0010568284, Final residual = 3.6720115e-05, No Iterations 3
smoothSolver:  Solving for Uy, Initial residual = 0.0057542389, Final residual = 0.00019897964, No Iterations 3
smoothSolver:  Solving for Uz, Initial residual = 0.0010870645, Final residual = 3.8737075e-05, No Iterations 3
GAMG:  Solving for p, Initial residual = 0.0084216539, Final residual = 7.2078162e-05, No Iterations 3
time step continuity errors : sum local = 9.4619876e-06, global = 7.9922209e-08, cumulative = -8.2638839e-06
ExecutionTime = 21.445647 s  ClockTime = 21 s

Time = 125s

smoothSolver:  Solving for Ux, Initial residual = 0.0010569207, Final residual = 3.6731993e-05, No Iterations 3
smoothSolver:  Solving for Uy, Initial residual = 0.0057049502, Final residual = 0.00019714392, No Iterations 3
smoothSolver:  Solving for Uz, Initial residual = 0.0010807332, Final residual = 3.8523851e-05, No Iterations 3
GAMG:  Solving for p, Initial residual = 0.0084069146, Final residual = 7.202216e-05, No Iterations 3
time step continuity errors : sum local = 9.4672374e-06, global = 7.949498e-08, cumulative = -8.1843889e-06
ExecutionTime = 21.609086 s  ClockTime = 21 s

Time = 126s

smoothSolver:  Solving for Ux, Initial residual = 0.0010570427, Final residual = 3.6744739e-05, No Iterations 3
smoothSolver:  Solving for Uy, Initial residual = 0.005656799, Final residual = 0.00019533877, No Iterations 3
smoothSolver:  Solving for Uz, Initial residual = 0.0010745359, Final residual = 3.8315893e-05, No Iterations 3
GAMG:  Solving for p, Initial residual = 0.0083947917, Final residual = 7.1912384e-05, No Iterations 3
time step continuity errors : sum local = 9.4655171e-06, global = 7.7775608e-08, cumulative = -8.1066133e-06
ExecutionTime = 21.7787 s  ClockTime = 22 s

Time = 127s

smoothSolver:  Solving for Ux, Initial residual = 0.0010571535, Final residual = 3.6756107e-05, No Iterations 3
smoothSolver:  Solving for Uy, Initial residual = 0.0056089413, Final residual = 0.00019353333, No Iterations 3
smoothSolver:  Solving for Uz, Initial residual = 0.0010684323, Final residual = 3.8111184e-05, No Iterations 3
GAMG:  Solving for p, Initial residual = 0.0083781948, Final residual = 7.1699316e-05, No Iterations 3
time step continuity errors : sum local = 9.4502062e-06, global = 7.7145984e-08, cumulative = -8.0294673e-06
ExecutionTime = 21.944551 s  ClockTime = 22 s

Time = 128s

smoothSolver:  Solving for Ux, Initial residual = 0.001057182, Final residual = 3.6763266e-05, No Iterations 3
smoothSolver:  Solving for Uy, Initial residual = 0.0055597802, Final residual = 0.00019170106, No Iterations 3
smoothSolver:  Solving for Uz, Initial residual = 0.0010623882, Final residual = 3.7908094e-05, No Iterations 3
GAMG:  Solving for p, Initial residual = 0.0083647399, Final residual = 7.1515603e-05, No Iterations 3
time step continuity errors : sum local = 9.4386996e-06, global = 7.6493159e-08, cumulative = -7.9529741e-06
ExecutionTime = 22.110427 s  ClockTime = 22 s

Time = 129s

smoothSolver:  Solving for Ux, Initial residual = 0.0010571266, Final residual = 3.6764832e-05, No Iterations 3
smoothSolver:  Solving for Uy, Initial residual = 0.0055099482, Final residual = 0.00018985081, No Iterations 3
smoothSolver:  Solving for Uz, Initial residual = 0.001056392, Final residual = 3.7705591e-05, No Iterations 3
GAMG:  Solving for p, Initial residual = 0.008345264, Final residual = 7.129941e-05, No Iterations 3
time step continuity errors : sum local = 9.4226449e-06, global = 7.5820252e-08, cumulative = -7.8771539e-06
ExecutionTime = 22.275918 s  ClockTime = 22 s

Time = 130s

smoothSolver:  Solving for Ux, Initial residual = 0.001056971, Final residual = 3.6761482e-05, No Iterations 3
smoothSolver:  Solving for Uy, Initial residual = 0.0054590877, Final residual = 0.00018796623, No Iterations 3
[...]
GAMG:  Solving for p, Initial residual = 1.3012787e-05, Final residual = 8.0597902e-08, No Iterations 3
time step continuity errors : sum local = 1.3053565e-08, global = 7.7791823e-10, cumulative = 3.4557802e-05
ExecutionTime = 251.81663 s  ClockTime = 254 s

Time = 1527s

smoothSolver:  Solving for Ux, Initial residual = 1.5492607e-06, Final residual = 5.7273163e-08, No Iterations 3
smoothSolver:  Solving for Uy, Initial residual = 1.1884075e-05, Final residual = 4.3962762e-07, No Iterations 3
smoothSolver:  Solving for Uz, Initial residual = 5.7670475e-07, Final residual = 2.0973172e-08, No Iterations 3
GAMG:  Solving for p, Initial residual = 1.2910162e-05, Final residual = 7.9783418e-08, No Iterations 3
time step continuity errors : sum local = 1.292165e-08, global = 8.0469344e-10, cumulative = 3.4558607e-05
ExecutionTime = 251.98161 s  ClockTime = 254 s

Time = 1528s

smoothSolver:  Solving for Ux, Initial residual = 1.5371671e-06, Final residual = 5.687852e-08, No Iterations 3
smoothSolver:  Solving for Uy, Initial residual = 1.1789926e-05, Final residual = 4.3611927e-07, No Iterations 3
smoothSolver:  Solving for Uz, Initial residual = 5.7218068e-07, Final residual = 2.0821793e-08, No Iterations 3
GAMG:  Solving for p, Initial residual = 1.2807882e-05, Final residual = 7.8899369e-08, No Iterations 3
time step continuity errors : sum local = 1.2778468e-08, global = 8.2465205e-10, cumulative = 3.4559432e-05
ExecutionTime = 252.14683 s  ClockTime = 254 s

Time = 1529s

smoothSolver:  Solving for Ux, Initial residual = 1.5252768e-06, Final residual = 5.6472983e-08, No Iterations 3
smoothSolver:  Solving for Uy, Initial residual = 1.1697324e-05, Final residual = 4.3259361e-07, No Iterations 3
smoothSolver:  Solving for Uz, Initial residual = 5.6775733e-07, Final residual = 2.0671211e-08, No Iterations 3
GAMG:  Solving for p, Initial residual = 1.2706062e-05, Final residual = 7.8120694e-08, No Iterations 3
time step continuity errors : sum local = 1.2652353e-08, global = 8.4160157e-10, cumulative = 3.4560273e-05
ExecutionTime = 252.31012 s  ClockTime = 255 s

Time = 1530s

smoothSolver:  Solving for Ux, Initial residual = 1.5135662e-06, Final residual = 5.604759e-08, No Iterations 3
smoothSolver:  Solving for Uy, Initial residual = 1.1604973e-05, Final residual = 4.2904437e-07, No Iterations 3
smoothSolver:  Solving for Uz, Initial residual = 5.6339607e-07, Final residual = 2.0513413e-08, No Iterations 3
GAMG:  Solving for p, Initial residual = 1.26034e-05, Final residual = 7.7368546e-08, No Iterations 3
time step continuity errors : sum local = 1.2530534e-08, global = 8.4957141e-10, cumulative = 3.4561123e-05
ExecutionTime = 252.47375 s  ClockTime = 255 s

Time = 1531s

smoothSolver:  Solving for Ux, Initial residual = 1.5019088e-06, Final residual = 5.5621771e-08, No Iterations 3
smoothSolver:  Solving for Uy, Initial residual = 1.1513024e-05, Final residual = 4.2549012e-07, No Iterations 3
smoothSolver:  Solving for Uz, Initial residual = 5.5902457e-07, Final residual = 2.0355267e-08, No Iterations 3
GAMG:  Solving for p, Initial residual = 1.2501039e-05, Final residual = 7.6651268e-08, No Iterations 3
time step continuity errors : sum local = 1.2414362e-08, global = 8.5244741e-10, cumulative = 3.4561975e-05
ExecutionTime = 252.63746 s  ClockTime = 255 s

Time = 1532s

smoothSolver:  Solving for Ux, Initial residual = 1.4901818e-06, Final residual = 5.5179721e-08, No Iterations 3
smoothSolver:  Solving for Uy, Initial residual = 1.1420839e-05, Final residual = 4.2189594e-07, No Iterations 3
smoothSolver:  Solving for Uz, Initial residual = 5.546211e-07, Final residual = 2.0194751e-08, No Iterations 3
GAMG:  Solving for p, Initial residual = 1.2399512e-05, Final residual = 7.5933836e-08, No Iterations 3
time step continuity errors : sum local = 1.2298166e-08, global = 8.4774719e-10, cumulative = 3.4562823e-05
ExecutionTime = 252.80159 s  ClockTime = 255 s

Time = 1533s

smoothSolver:  Solving for Ux, Initial residual = 1.4784876e-06, Final residual = 5.4720339e-08, No Iterations 3
smoothSolver:  Solving for Uy, Initial residual = 1.1329627e-05, Final residual = 4.1838126e-07, No Iterations 3
smoothSolver:  Solving for Uz, Initial residual = 5.5025905e-07, Final residual = 2.0030597e-08, No Iterations 3
GAMG:  Solving for p, Initial residual = 1.2300112e-05, Final residual = 7.5334044e-08, No Iterations 3
time step continuity errors : sum local = 1.2201022e-08, global = 8.3423616e-10, cumulative = 3.4563657e-05
ExecutionTime = 252.9663 s  ClockTime = 255 s

Time = 1534s

smoothSolver:  Solving for Ux, Initial residual = 1.4666704e-06, Final residual = 5.4254331e-08, No Iterations 3
smoothSolver:  Solving for Uy, Initial residual = 1.1238459e-05, Final residual = 4.1492709e-07, No Iterations 3
smoothSolver:  Solving for Uz, Initial residual = 5.4590947e-07, Final residual = 1.9865381e-08, No Iterations 3
GAMG:  Solving for p, Initial residual = 1.2200728e-05, Final residual = 7.4669188e-08, No Iterations 3
time step continuity errors : sum local = 1.2093341e-08, global = 8.1470838e-10, cumulative = 3.4564472e-05
ExecutionTime = 253.13369 s  ClockTime = 255 s

Time = 1535s

smoothSolver:  Solving for Ux, Initial residual = 1.4550394e-06, Final residual = 5.3791704e-08, No Iterations 3
smoothSolver:  Solving for Uy, Initial residual = 1.1146502e-05, Final residual = 4.1154722e-07, No Iterations 3
smoothSolver:  Solving for Uz, Initial residual = 5.4156802e-07, Final residual = 1.9698753e-08, No Iterations 3
GAMG:  Solving for p, Initial residual = 1.2100012e-05, Final residual = 7.3990357e-08, No Iterations 3
time step continuity errors : sum local = 1.1983397e-08, global = 7.896186e-10, cumulative = 3.4565261e-05
ExecutionTime = 253.30101 s  ClockTime = 256 s

Time = 1536s

smoothSolver:  Solving for Ux, Initial residual = 1.4434485e-06, Final residual = 5.333148e-08, No Iterations 3
smoothSolver:  Solving for Uy, Initial residual = 1.1055584e-05, Final residual = 4.0818594e-07, No Iterations 3
smoothSolver:  Solving for Uz, Initial residual = 5.3718387e-07, Final residual = 1.9532706e-08, No Iterations 3
GAMG:  Solving for p, Initial residual = 1.1998879e-05, Final residual = 7.3306831e-08, No Iterations 3
time step continuity errors : sum local = 1.1872692e-08, global = 7.5967773e-10, cumulative = 3.4566021e-05
ExecutionTime = 253.46627 s  ClockTime = 256 s

Time = 1537s

smoothSolver:  Solving for Ux, Initial residual = 1.4319679e-06, Final residual = 5.288373e-08, No Iterations 3
smoothSolver:  Solving for Uy, Initial residual = 1.0964607e-05, Final residual = 4.0488736e-07, No Iterations 3
smoothSolver:  Solving for Uz, Initial residual = 5.32811e-07, Final residual = 1.9371487e-08, No Iterations 3
GAMG:  Solving for p, Initial residual = 1.1899994e-05, Final residual = 7.2626421e-08, No Iterations 3
time step continuity errors : sum local = 1.1762492e-08, global = 7.2596706e-10, cumulative = 3.4566747e-05
ExecutionTime = 253.63028 s  ClockTime = 256 s

Time = 1538s

smoothSolver:  Solving for Ux, Initial residual = 1.4204343e-06, Final residual = 5.2439076e-08, No Iterations 3
smoothSolver:  Solving for Uy, Initial residual = 1.0874516e-05, Final residual = 4.016883e-07, No Iterations 3
smoothSolver:  Solving for Uz, Initial residual = 5.2847275e-07, Final residual = 1.9210033e-08, No Iterations 3
GAMG:  Solving for p, Initial residual = 1.1802298e-05, Final residual = 7.1985624e-08, No Iterations 3
time step continuity errors : sum local = 1.1658707e-08, global = 6.8931506e-10, cumulative = 3.4567436e-05
ExecutionTime = 253.79355 s  ClockTime = 256 s

Time = 1539s

smoothSolver:  Solving for Ux, Initial residual = 1.408924e-06, Final residual = 5.1997162e-08, No Iterations 3
smoothSolver:  Solving for Uy, Initial residual = 1.0785029e-05, Final residual = 3.9850774e-07, No Iterations 3
smoothSolver:  Solving for Uz, Initial residual = 5.2413634e-07, Final residual = 1.9049404e-08, No Iterations 3
GAMG:  Solving for p, Initial residual = 1.1704327e-05, Final residual = 7.1360672e-08, No Iterations 3
time step continuity errors : sum local = 1.1557489e-08, global = 6.503281e-10, cumulative = 3.4568087e-05
ExecutionTime = 253.95662 s  ClockTime = 256 s

Time = 1540s

smoothSolver:  Solving for Ux, Initial residual = 1.3975959e-06, Final residual = 5.1563115e-08, No Iterations 3
smoothSolver:  Solving for Uy, Initial residual = 1.0696179e-05, Final residual = 3.9535263e-07, No Iterations 3
smoothSolver:  Solving for Uz, Initial residual = 5.1984957e-07, Final residual = 1.8885361e-08, No Iterations 3
GAMG:  Solving for p, Initial residual = 1.1606039e-05, Final residual = 7.0743923e-08, No Iterations 3
time step continuity errors : sum local = 1.14576e-08, global = 6.0954201e-10, cumulative = 3.4568696e-05
ExecutionTime = 254.121 s  ClockTime = 256 s

Time = 1541s

smoothSolver:  Solving for Ux, Initial residual = 1.3862288e-06, Final residual = 5.1134032e-08, No Iterations 3
smoothSolver:  Solving for Uy, Initial residual = 1.0606966e-05, Final residual = 3.9225939e-07, No Iterations 3
smoothSolver:  Solving for Uz, Initial residual = 5.1556315e-07, Final residual = 1.8723179e-08, No Iterations 3
GAMG:  Solving for p, Initial residual = 1.1508208e-05, Final residual = 7.0092169e-08, No Iterations 3
time step continuity errors : sum local = 1.1352042e-08, global = 5.6837453e-10, cumulative = 3.4569265e-05
ExecutionTime = 254.2837 s  ClockTime = 257 s

Time = 1542s

smoothSolver:  Solving for Ux, Initial residual = 1.3746392e-06, Final residual = 5.0706385e-08, No Iterations 3
smoothSolver:  Solving for Uy, Initial residual = 1.0518633e-05, Final residual = 3.8927227e-07, No Iterations 3
smoothSolver:  Solving for Uz, Initial residual = 5.1129365e-07, Final residual = 1.8562207e-08, No Iterations 3
GAMG:  Solving for p, Initial residual = 1.1411423e-05, Final residual = 6.9484506e-08, No Iterations 3
time step continuity errors : sum local = 1.1253624e-08, global = 5.2421386e-10, cumulative = 3.4569789e-05
ExecutionTime = 254.44837 s  ClockTime = 257 s

Time = 1543s

smoothSolver:  Solving for Ux, Initial residual = 1.3631611e-06, Final residual = 5.028407e-08, No Iterations 3
smoothSolver:  Solving for Uy, Initial residual = 1.0431214e-05, Final residual = 3.862824e-07, No Iterations 3
smoothSolver:  Solving for Uz, Initial residual = 5.0712741e-07, Final residual = 1.8403177e-08, No Iterations 3
GAMG:  Solving for p, Initial residual = 1.1315906e-05, Final residual = 6.8887517e-08, No Iterations 3
time step continuity errors : sum local = 1.1156936e-08, global = 4.7681591e-10, cumulative = 3.4570266e-05
ExecutionTime = 254.61191 s  ClockTime = 257 s

Time = 1544s

smoothSolver:  Solving for Ux, Initial residual = 1.3519474e-06, Final residual = 4.9854225e-08, No Iterations 3
smoothSolver:  Solving for Uy, Initial residual = 1.034513e-05, Final residual = 3.8336627e-07, No Iterations 3
smoothSolver:  Solving for Uz, Initial residual = 5.0293555e-07, Final residual = 1.8248243e-08, No Iterations 3
GAMG:  Solving for p, Initial residual = 1.1220733e-05, Final residual = 6.836051e-08, No Iterations 3
time step continuity errors : sum local = 1.1071581e-08, global = 4.2855902e-10, cumulative = 3.4570694e-05
ExecutionTime = 254.7747 s  ClockTime = 257 s

Time = 1545s

smoothSolver:  Solving for Ux, Initial residual = 1.340775e-06, Final residual = 4.9416717e-08, No Iterations 3
smoothSolver:  Solving for Uy, Initial residual = 1.0260484e-05, Final residual = 3.804375e-07, No Iterations 3
smoothSolver:  Solving for Uz, Initial residual = 4.9880722e-07, Final residual = 1.8096726e-08, No Iterations 3
GAMG:  Solving for p, Initial residual = 1.112661e-05, Final residual = 6.7758943e-08, No Iterations 3
time step continuity errors : sum local = 1.0974151e-08, global = 3.7740447e-10, cumulative = 3.4571072e-05
ExecutionTime = 254.93702 s  ClockTime = 257 s

Time = 1546s

smoothSolver:  Solving for Ux, Initial residual = 1.3296781e-06, Final residual = 4.8980983e-08, No Iterations 3
smoothSolver:  Solving for Uy, Initial residual = 1.0177619e-05, Final residual = 3.7750075e-07, No Iterations 3
smoothSolver:  Solving for Uz, Initial residual = 4.9477369e-07, Final residual = 1.7945975e-08, No Iterations 3
GAMG:  Solving for p, Initial residual = 1.103373e-05, Final residual = 6.7285725e-08, No Iterations 3
time step continuity errors : sum local = 1.0897508e-08, global = 3.2470997e-10, cumulative = 3.4571396e-05
ExecutionTime = 255.1011 s  ClockTime = 257 s

Time = 1547s

smoothSolver:  Solving for Ux, Initial residual = 1.3187008e-06, Final residual = 4.8548683e-08, No Iterations 3
smoothSolver:  Solving for Uy, Initial residual = 1.0094614e-05, Final residual = 3.7455718e-07, No Iterations 3
smoothSolver:  Solving for Uz, Initial residual = 4.9077695e-07, Final residual = 1.7797986e-08, No Iterations 3
GAMG:  Solving for p, Initial residual = 1.0941741e-05, Final residual = 6.6792091e-08, No Iterations 3
time step continuity errors : sum local = 1.0817559e-08, global = 2.7158845e-10, cumulative = 3.4571668e-05
ExecutionTime = 255.26472 s  ClockTime = 258 s

Time = 1548s

smoothSolver:  Solving for Ux, Initial residual = 1.3077955e-06, Final residual = 4.8120344e-08, No Iterations 3
smoothSolver:  Solving for Uy, Initial residual = 1.0012055e-05, Final residual = 3.7152376e-07, No Iterations 3
smoothSolver:  Solving for Uz, Initial residual = 4.8680645e-07, Final residual = 1.765186e-08, No Iterations 3
GAMG:  Solving for p, Initial residual = 1.0849264e-05, Final residual = 6.607962e-08, No Iterations 3
time step continuity errors : sum local = 1.0702168e-08, global = 2.242314e-10, cumulative = 3.4571892e-05
ExecutionTime = 255.42952 s  ClockTime = 258 s

Time = 1549s

smoothSolver:  Solving for Ux, Initial residual = 1.2968264e-06, Final residual = 4.7700256e-08, No Iterations 3
smoothSolver:  Solving for Uy, Initial residual = 9.9305759e-06, Final residual = 3.6839994e-07, No Iterations 3
smoothSolver:  Solving for Uz, Initial residual = 4.8289442e-07, Final residual = 1.7503181e-08, No Iterations 3
GAMG:  Solving for p, Initial residual = 1.0756788e-05, Final residual = 6.5550394e-08, No Iterations 3
time step continuity errors : sum local = 1.0616454e-08, global = 1.7106378e-10, cumulative = 3.4572063e-05
ExecutionTime = 255.59348 s  ClockTime = 258 s

Time = 1550s

smoothSolver:  Solving for Ux, Initial residual = 1.2857666e-06, Final residual = 4.7292692e-08, No Iterations 3
smoothSolver:  Solving for Uy, Initial residual = 9.8508794e-06, Final residual = 3.6530162e-07, No Iterations 3
smoothSolver:  Solving for Uz, Initial residual = 4.7898501e-07, Final residual = 1.7357915e-08, No Iterations 3
GAMG:  Solving for p, Initial residual = 1.0665387e-05, Final residual = 6.5039157e-08, No Iterations 3
time step continuity errors : sum local = 1.0533655e-08, global = 1.1960552e-10, cumulative = 3.4572183e-05
ExecutionTime = 255.75791 s  ClockTime = 258 s

Time = 1551s

smoothSolver:  Solving for Ux, Initial residual = 1.2747791e-06, Final residual = 4.6885564e-08, No Iterations 3
smoothSolver:  Solving for Uy, Initial residual = 9.7714077e-06, Final residual = 3.6227155e-07, No Iterations 3
smoothSolver:  Solving for Uz, Initial residual = 4.7506453e-07, Final residual = 1.7213512e-08, No Iterations 3
GAMG:  Solving for p, Initial residual = 1.0575653e-05, Final residual = 6.4536831e-08, No Iterations 3
time step continuity errors : sum local = 1.0452298e-08, global = 6.6926099e-11, cumulative = 3.457225e-05
ExecutionTime = 255.91983 s  ClockTime = 258 s

Time = 1552s

smoothSolver:  Solving for Ux, Initial residual = 1.2639315e-06, Final residual = 4.6492475e-08, No Iterations 3
smoothSolver:  Solving for Uy, Initial residual = 9.6924239e-06, Final residual = 3.5929692e-07, No Iterations 3
smoothSolver:  Solving for Uz, Initial residual = 4.7117958e-07, Final residual = 1.7071422e-08, No Iterations 3
GAMG:  Solving for p, Initial residual = 1.0485614e-05, Final residual = 6.4055149e-08, No Iterations 3
time step continuity errors : sum local = 1.0374286e-08, global = 1.2947784e-11, cumulative = 3.4572263e-05
ExecutionTime = 256.08348 s  ClockTime = 258 s

Time = 1553s

smoothSolver:  Solving for Ux, Initial residual = 1.2532133e-06, Final residual = 4.6099222e-08, No Iterations 3
smoothSolver:  Solving for Uy, Initial residual = 9.6133619e-06, Final residual = 3.5636353e-07, No Iterations 3
smoothSolver:  Solving for Uz, Initial residual = 4.6727986e-07, Final residual = 1.6931379e-08, No Iterations 3
GAMG:  Solving for p, Initial residual = 1.0395254e-05, Final residual = 6.360102e-08, No Iterations 3
time step continuity errors : sum local = 1.0300735e-08, global = -4.4249018e-11, cumulative = 3.4572219e-05
ExecutionTime = 256.24535 s  ClockTime = 259 s

Time = 1554s

smoothSolver:  Solving for Ux, Initial residual = 1.2425815e-06, Final residual = 4.5702778e-08, No Iterations 3
smoothSolver:  Solving for Uy, Initial residual = 9.5348394e-06, Final residual = 3.5346213e-07, No Iterations 3
smoothSolver:  Solving for Uz, Initial residual = 4.6345377e-07, Final residual = 1.679167e-08, No Iterations 3
GAMG:  Solving for p, Initial residual = 1.0304828e-05, Final residual = 6.3270556e-08, No Iterations 3
time step continuity errors : sum local = 1.0247214e-08, global = -9.856195e-11, cumulative = 3.457212e-05
ExecutionTime = 256.40986 s  ClockTime = 259 s

Time = 1555s

smoothSolver:  Solving for Ux, Initial residual = 1.2319611e-06, Final residual = 4.5312271e-08, No Iterations 3
smoothSolver:  Solving for Uy, Initial residual = 9.4573318e-06, Final residual = 3.5056147e-07, No Iterations 3
smoothSolver:  Solving for Uz, Initial residual = 4.5965773e-07, Final residual = 1.6652927e-08, No Iterations 3
GAMG:  Solving for p, Initial residual = 1.0215624e-05, Final residual = 6.284391e-08, No Iterations 3
time step continuity errors : sum local = 1.0178115e-08, global = -1.5588255e-10, cumulative = 3.4571964e-05
ExecutionTime = 256.57317 s  ClockTime = 259 s

Time = 1556s

smoothSolver:  Solving for Ux, Initial residual = 1.2215097e-06, Final residual = 4.4915432e-08, No Iterations 3
smoothSolver:  Solving for Uy, Initial residual = 9.3792285e-06, Final residual = 3.4770415e-07, No Iterations 3
smoothSolver:  Solving for Uz, Initial residual = 4.5583841e-07, Final residual = 1.6513792e-08, No Iterations 3
GAMG:  Solving for p, Initial residual = 1.0127106e-05, Final residual = 6.2369318e-08, No Iterations 3
time step continuity errors : sum local = 1.0101251e-08, global = -2.1028663e-10, cumulative = 3.4571754e-05
ExecutionTime = 256.73836 s  ClockTime = 259 s

Time = 1557s

smoothSolver:  Solving for Ux, Initial residual = 1.2110424e-06, Final residual = 4.4526003e-08, No Iterations 3
smoothSolver:  Solving for Uy, Initial residual = 9.3019833e-06, Final residual = 3.44855e-07, No Iterations 3
smoothSolver:  Solving for Uz, Initial residual = 4.5203348e-07, Final residual = 1.6376279e-08, No Iterations 3
GAMG:  Solving for p, Initial residual = 1.0039153e-05, Final residual = 6.176063e-08, No Iterations 3
time step continuity errors : sum local = 1.0002669e-08, global = -2.6423911e-10, cumulative = 3.457149e-05
ExecutionTime = 256.90122 s  ClockTime = 259 s

Time = 1558s

smoothSolver:  Solving for Ux, Initial residual = 1.200688e-06, Final residual = 4.4144038e-08, No Iterations 3
smoothSolver:  Solving for Uy, Initial residual = 9.2252235e-06, Final residual = 3.4204673e-07, No Iterations 3
smoothSolver:  Solving for Uz, Initial residual = 4.4818488e-07, Final residual = 1.6241482e-08, No Iterations 3
GAMG:  Solving for p, Initial residual = 9.9520371e-06, Final residual = 6.1311019e-08, No Iterations 3
time step continuity errors : sum local = 9.9298507e-09, global = -3.1549306e-10, cumulative = 3.4571174e-05
ExecutionTime = 257.06726 s  ClockTime = 259 s


SIMPLE solution converged in 1558 iterations

End

Finalising parallel run
