/*---------------------------------------------------------------------------*\
  =========                 |
  \\      /  F ield         | OpenFOAM: The Open Source CFD Toolbox
   \\    /   O peration     | Website:  https://openfoam.org
    \\  /    A nd           | Version:  11
     \\/     M anipulation  |
\*---------------------------------------------------------------------------*/
Build  : 11-e1fc8c682ae6
Exec   : foamRun -solver incompressibleFluid -parallel
Date   : Feb 08 2026
Time   : 01:57:50
Host   : "ip-172-31-18-192"
PID    : 123393
I/O    : uncollated
Case   : /home/ubuntu/cases/bifurcation_angle30_1000_ascii/Re400
nProcs : 16
Slaves : 
15
(
"ip-172-31-18-192.123394"
"ip-172-31-18-192.123395"
"ip-172-31-18-192.123396"
"ip-172-31-18-192.123397"
"ip-172-31-18-192.123398"
"ip-172-31-18-192.123399"
"ip-172-31-18-192.123400"
"ip-172-31-18-192.123401"
"ip-172-31-18-192.123402"
"ip-172-31-18-192.123403"
"ip-172-31-18-192.123404"
"ip-172-31-18-192.123405"
"ip-172-31-18-192.123406"
"ip-172-31-18-192.123407"
"ip-172-31-18-192.123408"
)

Pstream initialised with:
    floatTransfer      : false
    nProcsSimpleSum    : 0
    commsType          : nonBlocking
    polling iterations : 0
sigFpe : Enabling floating point exception trapping (FOAM_SIGFPE).
fileModificationChecking : Monitoring run-time modified files using timeStampMaster (fileModificationSkew 10)
allowSystemOperations : Allowing user-supplied system call operations

// * * * * * * * * * * * * * * * * * * * * * * * * * * * * * * * * * * * * * //
Create time

Create mesh for time = 0

Selecting solver incompressibleFluid
Selecting viscosity model Newtonian
Selecting turbulence model type laminar
Selecting laminar stress model Stokes
No MRF models present


SIMPLE: Convergence criteria found
        p: tolerance 1e-05
        U: tolerance 1e-05


SIMPLE: Operating solver in steady-state mode with 1 outer corrector
SIMPLE: Operating solver in SIMPLE mode



Starting time loop

wallShearStress wallShearStress:
    processing wall patches: 
        wall-fluid_domain

Time = 1s

smoothSolver:  Solving for Ux, Initial residual = 1, Final residual = 0.056899525, No Iterations 1
smoothSolver:  Solving for Uy, Initial residual = 1, Final residual = 0.046524079, No Iterations 1
smoothSolver:  Solving for Uz, Initial residual = 1, Final residual = 0.010777151, No Iterations 1
GAMG:  Solving for p, Initial residual = 1, Final residual = 0.0088073199, No Iterations 10
time step continuity errors : sum local = 0.00023768549, global = -4.3633851e-06, cumulative = -4.3633851e-06
ExecutionTime = 0.786906 s  ClockTime = 0 s

Time = 2s

smoothSolver:  Solving for Ux, Initial residual = 0.22279535, Final residual = 0.01351878, No Iterations 2
smoothSolver:  Solving for Uy, Initial residual = 0.36502358, Final residual = 0.017983891, No Iterations 2
smoothSolver:  Solving for Uz, Initial residual = 0.23174559, Final residual = 0.014072958, No Iterations 2
GAMG:  Solving for p, Initial residual = 0.42243387, Final residual = 0.0033090082, No Iterations 6
time step continuity errors : sum local = 0.0065907497, global = -0.00018721103, cumulative = -0.00019157441
ExecutionTime = 1.02279 s  ClockTime = 1 s

Time = 3s

smoothSolver:  Solving for Ux, Initial residual = 0.24614104, Final residual = 0.0081966082, No Iterations 3
smoothSolver:  Solving for Uy, Initial residual = 0.14164697, Final residual = 0.008850919, No Iterations 2
smoothSolver:  Solving for Uz, Initial residual = 0.46458147, Final residual = 0.016688199, No Iterations 3
GAMG:  Solving for p, Initial residual = 0.16478923, Final residual = 0.0010275792, No Iterations 3
time step continuity errors : sum local = 0.011791659, global = 7.2849976e-05, cumulative = -0.00011872444
ExecutionTime = 1.225981 s  ClockTime = 1 s

Time = 4s

smoothSolver:  Solving for Ux, Initial residual = 0.16192528, Final residual = 0.0055975385, No Iterations 3
smoothSolver:  Solving for Uy, Initial residual = 0.075361382, Final residual = 0.004742238, No Iterations 2
smoothSolver:  Solving for Uz, Initial residual = 0.31542377, Final residual = 0.011346856, No Iterations 3
GAMG:  Solving for p, Initial residual = 0.11460208, Final residual = 0.00088417982, No Iterations 5
time step continuity errors : sum local = 0.01060183, global = -4.3276013e-06, cumulative = -0.00012305204
ExecutionTime = 1.450006 s  ClockTime = 1 s

Time = 5s

smoothSolver:  Solving for Ux, Initial residual = 0.079187258, Final residual = 0.0025650318, No Iterations 3
smoothSolver:  Solving for Uy, Initial residual = 0.17413694, Final residual = 0.012245383, No Iterations 2
smoothSolver:  Solving for Uz, Initial residual = 0.12417138, Final residual = 0.0044732397, No Iterations 3
GAMG:  Solving for p, Initial residual = 0.082582894, Final residual = 0.00071553579, No Iterations 6
time step continuity errors : sum local = 0.0045950225, global = 0.00020242627, cumulative = 7.9374229e-05
ExecutionTime = 1.688018 s  ClockTime = 1 s

Time = 6s

smoothSolver:  Solving for Ux, Initial residual = 0.060044248, Final residual = 0.0052490059, No Iterations 2
smoothSolver:  Solving for Uy, Initial residual = 0.40486033, Final residual = 0.027836989, No Iterations 2
smoothSolver:  Solving for Uz, Initial residual = 0.047894436, Final residual = 0.00160738, No Iterations 3
GAMG:  Solving for p, Initial residual = 0.4671673, Final residual = 0.0021453918, No Iterations 5
time step continuity errors : sum local = 0.0070137079, global = -0.00014037129, cumulative = -6.0997063e-05
ExecutionTime = 1.908787 s  ClockTime = 2 s

Time = 7s

smoothSolver:  Solving for Ux, Initial residual = 0.1180101, Final residual = 0.0037416429, No Iterations 3
smoothSolver:  Solving for Uy, Initial residual = 0.26516375, Final residual = 0.017707111, No Iterations 2
smoothSolver:  Solving for Uz, Initial residual = 0.16225464, Final residual = 0.0058509928, No Iterations 3
GAMG:  Solving for p, Initial residual = 0.27788936, Final residual = 0.0024977132, No Iterations 3
time step continuity errors : sum local = 0.016215862, global = -0.00027874644, cumulative = -0.0003397435
ExecutionTime = 2.106175 s  ClockTime = 2 s

Time = 8s

smoothSolver:  Solving for Ux, Initial residual = 0.1121869, Final residual = 0.0037415131, No Iterations 3
smoothSolver:  Solving for Uy, Initial residual = 0.14133511, Final residual = 0.0097523627, No Iterations 2
smoothSolver:  Solving for Uz, Initial residual = 0.18190846, Final residual = 0.006561646, No Iterations 3
GAMG:  Solving for p, Initial residual = 0.21750368, Final residual = 0.0010580554, No Iterations 5
time step continuity errors : sum local = 0.0059832066, global = 1.4270974e-05, cumulative = -0.00032547253
ExecutionTime = 2.331924 s  ClockTime = 2 s

Time = 9s

smoothSolver:  Solving for Ux, Initial residual = 0.055387813, Final residual = 0.0054588337, No Iterations 2
smoothSolver:  Solving for Uy, Initial residual = 0.24233824, Final residual = 0.019445491, No Iterations 2
smoothSolver:  Solving for Uz, Initial residual = 0.071246245, Final residual = 0.0025263791, No Iterations 3
GAMG:  Solving for p, Initial residual = 0.21329064, Final residual = 0.00090155383, No Iterations 6
time step continuity errors : sum local = 0.0021262022, global = -6.5501017e-05, cumulative = -0.00039097354
ExecutionTime = 2.566144 s  ClockTime = 2 s

Time = 10s

smoothSolver:  Solving for Ux, Initial residual = 0.057309927, Final residual = 0.0054419977, No Iterations 2
smoothSolver:  Solving for Uy, Initial residual = 0.40113907, Final residual = 0.029991795, No Iterations 2
smoothSolver:  Solving for Uz, Initial residual = 0.055640731, Final residual = 0.0019691899, No Iterations 3
GAMG:  Solving for p, Initial residual = 0.33347786, Final residual = 0.0030532045, No Iterations 4
time step continuity errors : sum local = 0.0063571586, global = -0.00010170752, cumulative = -0.00049268107
ExecutionTime = 2.778693 s  ClockTime = 2 s

Time = 11s

smoothSolver:  Solving for Ux, Initial residual = 0.066509042, Final residual = 0.0021394962, No Iterations 3
smoothSolver:  Solving for Uy, Initial residual = 0.2438987, Final residual = 0.017078198, No Iterations 2
smoothSolver:  Solving for Uz, Initial residual = 0.091940031, Final residual = 0.0033210837, No Iterations 3
GAMG:  Solving for p, Initial residual = 0.23781699, Final residual = 0.0015113976, No Iterations 4
time step continuity errors : sum local = 0.0048237087, global = -5.362266e-07, cumulative = -0.00049321729
ExecutionTime = 2.992359 s  ClockTime = 3 s

Time = 12s

smoothSolver:  Solving for Ux, Initial residual = 0.042733656, Final residual = 0.0014371815, No Iterations 3
smoothSolver:  Solving for Uy, Initial residual = 0.15369399, Final residual = 0.012145956, No Iterations 2
smoothSolver:  Solving for Uz, Initial residual = 0.064664517, Final residual = 0.0023348181, No Iterations 3
GAMG:  Solving for p, Initial residual = 0.18818678, Final residual = 0.001247562, No Iterations 5
time step continuity errors : sum local = 0.0030427974, global = -1.1912217e-05, cumulative = -0.00050512951
ExecutionTime = 3.216356 s  ClockTime = 3 s

Time = 13s

smoothSolver:  Solving for Ux, Initial residual = 0.018179217, Final residual = 0.0016735646, No Iterations 2
smoothSolver:  Solving for Uy, Initial residual = 0.30934427, Final residual = 0.026248932, No Iterations 2
smoothSolver:  Solving for Uz, Initial residual = 0.016220159, Final residual = 0.00053656231, No Iterations 3
GAMG:  Solving for p, Initial residual = 0.28459985, Final residual = 0.0010774556, No Iterations 6
time step continuity errors : sum local = 0.00091149976, global = 2.834168e-05, cumulative = -0.00047678783
ExecutionTime = 3.448557 s  ClockTime = 3 s

Time = 14s

smoothSolver:  Solving for Ux, Initial residual = 0.028065694, Final residual = 0.0027514148, No Iterations 2
smoothSolver:  Solving for Uy, Initial residual = 0.34837768, Final residual = 0.027462654, No Iterations 2
smoothSolver:  Solving for Uz, Initial residual = 0.02902317, Final residual = 0.0010386072, No Iterations 3
GAMG:  Solving for p, Initial residual = 0.31458199, Final residual = 0.0021356536, No Iterations 4
time step continuity errors : sum local = 0.0025614236, global = 2.7978947e-05, cumulative = -0.00044880888
ExecutionTime = 3.659732 s  ClockTime = 3 s

Time = 15s

smoothSolver:  Solving for Ux, Initial residual = 0.031395207, Final residual = 0.0010168691, No Iterations 3
smoothSolver:  Solving for Uy, Initial residual = 0.19463803, Final residual = 0.014249077, No Iterations 2
smoothSolver:  Solving for Uz, Initial residual = 0.04276138, Final residual = 0.0015421355, No Iterations 3
GAMG:  Solving for p, Initial residual = 0.23681587, Final residual = 0.0018279583, No Iterations 4
time step continuity errors : sum local = 0.0027461148, global = -1.4400292e-05, cumulative = -0.00046320917
ExecutionTime = 3.872235 s  ClockTime = 4 s

Time = 16s

smoothSolver:  Solving for Ux, Initial residual = 0.020182358, Final residual = 0.00067213931, No Iterations 3
smoothSolver:  Solving for Uy, Initial residual = 0.15107737, Final residual = 0.012979886, No Iterations 2
smoothSolver:  Solving for Uz, Initial residual = 0.028665289, Final residual = 0.001029688, No Iterations 3
GAMG:  Solving for p, Initial residual = 0.18836085, Final residual = 0.0014748806, No Iterations 5
time step continuity errors : sum local = 0.0014916122, global = 4.7179658e-06, cumulative = -0.00045849121
ExecutionTime = 4.096002 s  ClockTime = 4 s

Time = 17s

smoothSolver:  Solving for Ux, Initial residual = 0.0099329637, Final residual = 0.00087700384, No Iterations 2
smoothSolver:  Solving for Uy, Initial residual = 0.28907485, Final residual = 0.02494806, No Iterations 2
smoothSolver:  Solving for Uz, Initial residual = 0.0064222454, Final residual = 0.00058659598, No Iterations 2
GAMG:  Solving for p, Initial residual = 0.52620342, Final residual = 0.0042881881, No Iterations 5
time step continuity errors : sum local = 0.0010512327, global = 2.1101389e-06, cumulative = -0.00045638107
ExecutionTime = 4.315645 s  ClockTime = 4 s

Time = 18s

smoothSolver:  Solving for Ux, Initial residual = 0.01608946, Final residual = 0.00051284977, No Iterations 3
smoothSolver:  Solving for Uy, Initial residual = 0.26373903, Final residual = 0.021230962, No Iterations 2
smoothSolver:  Solving for Uz, Initial residual = 0.017801053, Final residual = 0.00064486974, No Iterations 3
GAMG:  Solving for p, Initial residual = 0.25571947, Final residual = 0.0013271354, No Iterations 4
time step continuity errors : sum local = 0.00097414994, global = -1.4549313e-05, cumulative = -0.00047093038
ExecutionTime = 4.52793 s  ClockTime = 4 s

Time = 19s

smoothSolver:  Solving for Ux, Initial residual = 0.014324386, Final residual = 0.00047658525, No Iterations 3
smoothSolver:  Solving for Uy, Initial residual = 0.1485118, Final residual = 0.011503136, No Iterations 2
smoothSolver:  Solving for Uz, Initial residual = 0.01985442, Final residual = 0.00072135131, No Iterations 3
GAMG:  Solving for p, Initial residual = 0.20040863, Final residual = 0.0018938236, No Iterations 4
time step continuity errors : sum local = 0.0014775383, global = 1.5810896e-05, cumulative = -0.00045511949
ExecutionTime = 4.739867 s  ClockTime = 4 s

Time = 20s

smoothSolver:  Solving for Ux, Initial residual = 0.008261119, Final residual = 0.00027917303, No Iterations 3
smoothSolver:  Solving for Uy, Initial residual = 0.14426159, Final residual = 0.013190823, No Iterations 2
smoothSolver:  Solving for Uz, Initial residual = 0.010777054, Final residual = 0.00039015441, No Iterations 3
GAMG:  Solving for p, Initial residual = 0.1519515, Final residual = 0.0013950789, No Iterations 5
time step continuity errors : sum local = 0.0007006137, global = -4.0175375e-06, cumulative = -0.00045913702
ExecutionTime = 4.963515 s  ClockTime = 5 s

Time = 21s

smoothSolver:  Solving for Ux, Initial residual = 0.0054604534, Final residual = 0.00050195856, No Iterations 2
smoothSolver:  Solving for Uy, Initial residual = 0.21112949, Final residual = 0.01863208, No Iterations 2
smoothSolver:  Solving for Uz, Initial residual = 0.0035777547, Final residual = 0.00034441984, No Iterations 2
GAMG:  Solving for p, Initial residual = 0.36840998, Final residual = 0.0022140193, No Iterations 5
time step continuity errors : sum local = 0.00042660621, global = -3.6568059e-07, cumulative = -0.0004595027
ExecutionTime = 5.183788 s  ClockTime = 5 s

Time = 22s

smoothSolver:  Solving for Ux, Initial residual = 0.0077346611, Final residual = 0.00024326567, No Iterations 3
smoothSolver:  Solving for Uy, Initial residual = 0.16584375, Final residual = 0.013705842, No Iterations 2
smoothSolver:  Solving for Uz, Initial residual = 0.0090149813, Final residual = 0.00032156648, No Iterations 3
GAMG:  Solving for p, Initial residual = 0.23794053, Final residual = 0.0014881035, No Iterations 4
time step continuity errors : sum local = 0.00057610276, global = -5.812536e-06, cumulative = -0.00046531524
ExecutionTime = 5.394754 s  ClockTime = 5 s

Time = 23s

smoothSolver:  Solving for Ux, Initial residual = 0.0062745411, Final residual = 0.00020364077, No Iterations 3
smoothSolver:  Solving for Uy, Initial residual = 0.093363609, Final residual = 0.0076385371, No Iterations 2
smoothSolver:  Solving for Uz, Initial residual = 0.0088924707, Final residual = 0.00031753774, No Iterations 3
GAMG:  Solving for p, Initial residual = 0.18751111, Final residual = 0.00088245697, No Iterations 5
time step continuity errors : sum local = 0.00032552305, global = 6.3933188e-07, cumulative = -0.00046467591
ExecutionTime = 5.617114 s  ClockTime = 5 s

Time = 24s

smoothSolver:  Solving for Ux, Initial residual = 0.0035120426, Final residual = 0.00035005669, No Iterations 2
smoothSolver:  Solving for Uy, Initial residual = 0.10479819, Final residual = 0.0097662054, No Iterations 2
smoothSolver:  Solving for Uz, Initial residual = 0.0039964299, Final residual = 0.00013781774, No Iterations 3
GAMG:  Solving for p, Initial residual = 0.15740295, Final residual = 0.0015059825, No Iterations 5
time step continuity errors : sum local = 0.00031890711, global = 1.2062426e-06, cumulative = -0.00046346967
ExecutionTime = 5.840405 s  ClockTime = 5 s

Time = 25s

smoothSolver:  Solving for Ux, Initial residual = 0.0039020483, Final residual = 0.00012403725, No Iterations 3
smoothSolver:  Solving for Uy, Initial residual = 0.12707868, Final residual = 0.011404383, No Iterations 2
smoothSolver:  Solving for Uz, Initial residual = 0.0030711121, Final residual = 0.00010701656, No Iterations 3
GAMG:  Solving for p, Initial residual = 0.17389526, Final residual = 0.00073091098, No Iterations 5
time step continuity errors : sum local = 0.00016489133, global = -1.2012049e-06, cumulative = -0.00046467087
ExecutionTime = 6.063384 s  ClockTime = 6 s

Time = 26s

smoothSolver:  Solving for Ux, Initial residual = 0.0043426959, Final residual = 0.00014515038, No Iterations 3
smoothSolver:  Solving for Uy, Initial residual = 0.093887429, Final residual = 0.008143662, No Iterations 2
smoothSolver:  Solving for Uz, Initial residual = 0.0050718756, Final residual = 0.00018517223, No Iterations 3
GAMG:  Solving for p, Initial residual = 0.14761247, Final residual = 0.0011202544, No Iterations 4
time step continuity errors : sum local = 0.0003350455, global = 5.4965149e-07, cumulative = -0.00046412122
ExecutionTime = 6.27609 s  ClockTime = 6 s

Time = 27s

smoothSolver:  Solving for Ux, Initial residual = 0.0033882915, Final residual = 0.00011667109, No Iterations 3
smoothSolver:  Solving for Uy, Initial residual = 0.060151889, Final residual = 0.0055825211, No Iterations 2
smoothSolver:  Solving for Uz, Initial residual = 0.0043268956, Final residual = 0.00015788384, No Iterations 3
GAMG:  Solving for p, Initial residual = 0.10840773, Final residual = 0.00061130908, No Iterations 5
time step continuity errors : sum local = 0.00016871024, global = -8.7886171e-07, cumulative = -0.00046500008
ExecutionTime = 6.501042 s  ClockTime = 6 s

Time = 28s

smoothSolver:  Solving for Ux, Initial residual = 0.0025188755, Final residual = 8.326082e-05, No Iterations 3
smoothSolver:  Solving for Uy, Initial residual = 0.068161622, Final residual = 0.0065742252, No Iterations 2
smoothSolver:  Solving for Uz, Initial residual = 0.0023483471, Final residual = 8.2215365e-05, No Iterations 3
GAMG:  Solving for p, Initial residual = 0.085545793, Final residual = 0.00072642967, No Iterations 5
time step continuity errors : sum local = 0.00014394017, global = -5.2211029e-07, cumulative = -0.00046552219
ExecutionTime = 6.724501 s  ClockTime = 6 s

Time = 29s

smoothSolver:  Solving for Ux, Initial residual = 0.0022488344, Final residual = 0.00022254672, No Iterations 2
smoothSolver:  Solving for Uy, Initial residual = 0.070039283, Final residual = 0.0064862665, No Iterations 2
smoothSolver:  Solving for Uz, Initial residual = 0.0019399333, Final residual = 6.4401683e-05, No Iterations 3
GAMG:  Solving for p, Initial residual = 0.15125347, Final residual = 0.0011592039, No Iterations 4
time step continuity errors : sum local = 0.00017094763, global = 1.0651277e-06, cumulative = -0.00046445706
ExecutionTime = 6.932787 s  ClockTime = 7 s

Time = 30s

smoothSolver:  Solving for Ux, Initial residual = 0.0021238778, Final residual = 6.7036263e-05, No Iterations 3
smoothSolver:  Solving for Uy, Initial residual = 0.051086786, Final residual = 0.0047059438, No Iterations 2
smoothSolver:  Solving for Uz, Initial residual = 0.0024343436, Final residual = 8.4447935e-05, No Iterations 3
GAMG:  Solving for p, Initial residual = 0.13091378, Final residual = 0.0010460716, No Iterations 4
time step continuity errors : sum local = 0.00017753536, global = -4.2384485e-07, cumulative = -0.00046488091
ExecutionTime = 7.145681 s  ClockTime = 7 s

Time = 31s

smoothSolver:  Solving for Ux, Initial residual = 0.0017851467, Final residual = 5.7940043e-05, No Iterations 3
smoothSolver:  Solving for Uy, Initial residual = 0.039565236, Final residual = 0.0039148538, No Iterations 2
smoothSolver:  Solving for Uz, Initial residual = 0.001927792, Final residual = 6.6074247e-05, No Iterations 3
GAMG:  Solving for p, Initial residual = 0.09697599, Final residual = 0.00054815857, No Iterations 5
time step continuity errors : sum local = 8.2497519e-05, global = 6.2921978e-08, cumulative = -0.00046481799
ExecutionTime = 7.368671 s  ClockTime = 7 s

Time = 32s

smoothSolver:  Solving for Ux, Initial residual = 0.0019149403, Final residual = 6.3725667e-05, No Iterations 3
smoothSolver:  Solving for Uy, Initial residual = 0.044327882, Final residual = 0.0044053983, No Iterations 2
smoothSolver:  Solving for Uz, Initial residual = 0.0016103673, Final residual = 5.5332433e-05, No Iterations 3
GAMG:  Solving for p, Initial residual = 0.065342429, Final residual = 0.00039112511, No Iterations 5
time step continuity errors : sum local = 6.2475203e-05, global = -3.0721919e-07, cumulative = -0.00046512521
ExecutionTime = 7.593439 s  ClockTime = 7 s

Time = 33s

smoothSolver:  Solving for Ux, Initial residual = 0.0020723273, Final residual = 7.0056886e-05, No Iterations 3
smoothSolver:  Solving for Uy, Initial residual = 0.042688073, Final residual = 0.0041862199, No Iterations 2
smoothSolver:  Solving for Uz, Initial residual = 0.0019758534, Final residual = 7.0106832e-05, No Iterations 3
GAMG:  Solving for p, Initial residual = 0.066589354, Final residual = 0.00043094072, No Iterations 4
time step continuity errors : sum local = 8.1844722e-05, global = -9.0348143e-07, cumulative = -0.00046602869
ExecutionTime = 7.805221 s  ClockTime = 7 s

Time = 34s

smoothSolver:  Solving for Ux, Initial residual = 0.0019767287, Final residual = 6.7892416e-05, No Iterations 3
smoothSolver:  Solving for Uy, Initial residual = 0.034301327, Final residual = 0.0010876265, No Iterations 3
smoothSolver:  Solving for Uz, Initial residual = 0.0020736207, Final residual = 7.4056711e-05, No Iterations 3
GAMG:  Solving for p, Initial residual = 0.058256266, Final residual = 0.00054038292, No Iterations 4
time step continuity errors : sum local = 0.00010673403, global = 6.2382071e-07, cumulative = -0.00046540487
ExecutionTime = 8.019338 s  ClockTime = 8 s

Time = 35s

smoothSolver:  Solving for Ux, Initial residual = 0.0018058339, Final residual = 6.2064325e-05, No Iterations 3
smoothSolver:  Solving for Uy, Initial residual = 0.030485293, Final residual = 0.0010044795, No Iterations 3
smoothSolver:  Solving for Uz, Initial residual = 0.0018437287, Final residual = 6.5293868e-05, No Iterations 3
GAMG:  Solving for p, Initial residual = 0.04371336, Final residual = 0.00023250185, No Iterations 5
time step continuity errors : sum local = 4.3426341e-05, global = -1.3867029e-07, cumulative = -0.00046554354
ExecutionTime = 8.243353 s  ClockTime = 8 s

Time = 36s

smoothSolver:  Solving for Ux, Initial residual = 0.0016790261, Final residual = 5.6709568e-05, No Iterations 3
smoothSolver:  Solving for Uy, Initial residual = 0.030866906, Final residual = 0.0010006843, No Iterations 3
smoothSolver:  Solving for Uz, Initial residual = 0.0015672989, Final residual = 5.4655192e-05, No Iterations 3
GAMG:  Solving for p, Initial residual = 0.045003461, Final residual = 0.00018983981, No Iterations 5
time step continuity errors : sum local = 3.2150218e-05, global = 8.1629516e-08, cumulative = -0.00046546191
ExecutionTime = 8.470648 s  ClockTime = 8 s

Time = 37s

smoothSolver:  Solving for Ux, Initial residual = 0.0015867752, Final residual = 5.3087764e-05, No Iterations 3
smoothSolver:  Solving for Uy, Initial residual = 0.028740916, Final residual = 0.00092923492, No Iterations 3
smoothSolver:  Solving for Uz, Initial residual = 0.0014469499, Final residual = 4.9943401e-05, No Iterations 3
GAMG:  Solving for p, Initial residual = 0.053629861, Final residual = 0.00032548127, No Iterations 4
time step continuity errors : sum local = 5.1510971e-05, global = 1.3501855e-07, cumulative = -0.00046532689
ExecutionTime = 8.684673 s  ClockTime = 8 s

Time = 38s

smoothSolver:  Solving for Ux, Initial residual = 0.0015386242, Final residual = 5.1824542e-05, No Iterations 3
smoothSolver:  Solving for Uy, Initial residual = 0.025709538, Final residual = 0.00085451222, No Iterations 3
smoothSolver:  Solving for Uz, Initial residual = 0.0014201784, Final residual = 4.9065832e-05, No Iterations 3
GAMG:  Solving for p, Initial residual = 0.048208247, Final residual = 0.00045335996, No Iterations 4
time step continuity errors : sum local = 7.1689287e-05, global = -1.5444186e-07, cumulative = -0.00046548133
ExecutionTime = 8.899452 s  ClockTime = 9 s

Time = 39s

smoothSolver:  Solving for Ux, Initial residual = 0.0015547649, Final residual = 5.2809781e-05, No Iterations 3
smoothSolver:  Solving for Uy, Initial residual = 0.024987734, Final residual = 0.00084154066, No Iterations 3
smoothSolver:  Solving for Uz, Initial residual = 0.0014380344, Final residual = 4.9990887e-05, No Iterations 3
GAMG:  Solving for p, Initial residual = 0.037818212, Final residual = 0.00015828858, No Iterations 5
time step continuity errors : sum local = 2.6164201e-05, global = -3.2386731e-07, cumulative = -0.0004658052
ExecutionTime = 9.128733 s  ClockTime = 9 s

Time = 40s

smoothSolver:  Solving for Ux, Initial residual = 0.0015885835, Final residual = 5.4265959e-05, No Iterations 3
smoothSolver:  Solving for Uy, Initial residual = 0.024863252, Final residual = 0.00083359164, No Iterations 3
smoothSolver:  Solving for Uz, Initial residual = 0.0014999479, Final residual = 5.2574911e-05, No Iterations 3
GAMG:  Solving for p, Initial residual = 0.03464593, Final residual = 0.00031330005, No Iterations 4
time step continuity errors : sum local = 5.4702157e-05, global = -2.7926152e-07, cumulative = -0.00046608446
ExecutionTime = 9.346214 s  ClockTime = 9 s

Time = 41s

smoothSolver:  Solving for Ux, Initial residual = 0.0015843705, Final residual = 5.4387435e-05, No Iterations 3
smoothSolver:  Solving for Uy, Initial residual = 0.023632741, Final residual = 0.00079541886, No Iterations 3
smoothSolver:  Solving for Uz, Initial residual = 0.0015369742, Final residual = 5.4110064e-05, No Iterations 3
GAMG:  Solving for p, Initial residual = 0.03385427, Final residual = 0.00027490741, No Iterations 4
time step continuity errors : sum local = 4.9524264e-05, global = 4.561712e-07, cumulative = -0.00046562829
ExecutionTime = 9.558908 s  ClockTime = 9 s

Time = 42s

smoothSolver:  Solving for Ux, Initial residual = 0.0015504477, Final residual = 5.3370556e-05, No Iterations 3
smoothSolver:  Solving for Uy, Initial residual = 0.022264291, Final residual = 0.00075579545, No Iterations 3
smoothSolver:  Solving for Uz, Initial residual = 0.0015176377, Final residual = 5.3428352e-05, No Iterations 3
GAMG:  Solving for p, Initial residual = 0.031451781, Final residual = 0.00013260477, No Iterations 5
time step continuity errors : sum local = 2.4001225e-05, global = 2.3679126e-07, cumulative = -0.0004653915
ExecutionTime = 9.785947 s  ClockTime = 10 s

Time = 43s

smoothSolver:  Solving for Ux, Initial residual = 0.0015068125, Final residual = 5.1769077e-05, No Iterations 3
smoothSolver:  Solving for Uy, Initial residual = 0.021525854, Final residual = 0.000731398, No Iterations 3
smoothSolver:  Solving for Uz, Initial residual = 0.0014570684, Final residual = 5.1129749e-05, No Iterations 3
GAMG:  Solving for p, Initial residual = 0.029955904, Final residual = 0.00012967952, No Iterations 5
time step continuity errors : sum local = 2.3120254e-05, global = 2.098088e-07, cumulative = -0.00046518169
ExecutionTime = 10.009727 s  ClockTime = 10 s

Time = 44s

smoothSolver:  Solving for Ux, Initial residual = 0.0014718309, Final residual = 5.0423988e-05, No Iterations 3
smoothSolver:  Solving for Uy, Initial residual = 0.020958733, Final residual = 0.00071057977, No Iterations 3
smoothSolver:  Solving for Uz, Initial residual = 0.0013986675, Final residual = 4.8910384e-05, No Iterations 3
GAMG:  Solving for p, Initial residual = 0.030706695, Final residual = 0.00029070759, No Iterations 4
time step continuity errors : sum local = 5.0963896e-05, global = 4.3666662e-07, cumulative = -0.00046474502
ExecutionTime = 10.22388 s  ClockTime = 10 s

Time = 45s

smoothSolver:  Solving for Ux, Initial residual = 0.0014504529, Final residual = 4.9684164e-05, No Iterations 3
smoothSolver:  Solving for Uy, Initial residual = 0.020247486, Final residual = 0.00068857849, No Iterations 3
smoothSolver:  Solving for Uz, Initial residual = 0.0013667469, Final residual = 4.7737161e-05, No Iterations 3
GAMG:  Solving for p, Initial residual = 0.030628094, Final residual = 0.00016733366, No Iterations 4
time step continuity errors : sum local = 2.920481e-05, global = -2.4326408e-07, cumulative = -0.00046498829
ExecutionTime = 10.437334 s  ClockTime = 10 s

Time = 46s

smoothSolver:  Solving for Ux, Initial residual = 0.0014401892, Final residual = 4.9391488e-05, No Iterations 3
smoothSolver:  Solving for Uy, Initial residual = 0.019655462, Final residual = 0.00067051385, No Iterations 3
smoothSolver:  Solving for Uz, Initial residual = 0.0013532862, Final residual = 4.7295208e-05, No Iterations 3
GAMG:  Solving for p, Initial residual = 0.02924264, Final residual = 0.00027819582, No Iterations 4
time step continuity errors : sum local = 4.8877215e-05, global = -3.6497482e-07, cumulative = -0.00046535326
ExecutionTime = 10.651533 s  ClockTime = 10 s

Time = 47s

smoothSolver:  Solving for Ux, Initial residual = 0.0014383568, Final residual = 4.9423505e-05, No Iterations 3
smoothSolver:  Solving for Uy, Initial residual = 0.019208037, Final residual = 0.00065552989, No Iterations 3
smoothSolver:  Solving for Uz, Initial residual = 0.0013516486, Final residual = 4.7322115e-05, No Iterations 3
GAMG:  Solving for p, Initial residual = 0.027929114, Final residual = 0.00025918703, No Iterations 4
time step continuity errors : sum local = 4.618457e-05, global = -3.2478376e-07, cumulative = -0.00046567804
ExecutionTime = 10.867329 s  ClockTime = 11 s

Time = 48s

smoothSolver:  Solving for Ux, Initial residual = 0.0014348602, Final residual = 4.9387768e-05, No Iterations 3
smoothSolver:  Solving for Uy, Initial residual = 0.018713442, Final residual = 0.00063849245, No Iterations 3
smoothSolver:  Solving for Uz, Initial residual = 0.0013524739, Final residual = 4.7449705e-05, No Iterations 3
GAMG:  Solving for p, Initial residual = 0.027170634, Final residual = 0.00021046797, No Iterations 4
time step continuity errors : sum local = 3.8053818e-05, global = -1.5199464e-07, cumulative = -0.00046583004
ExecutionTime = 11.083243 s  ClockTime = 11 s

Time = 49s

smoothSolver:  Solving for Ux, Initial residual = 0.0014246781, Final residual = 4.9080793e-05, No Iterations 3
smoothSolver:  Solving for Uy, Initial residual = 0.018148376, Final residual = 0.00061938528, No Iterations 3
smoothSolver:  Solving for Uz, Initial residual = 0.0013459199, Final residual = 4.7287514e-05, No Iterations 3
GAMG:  Solving for p, Initial residual = 0.026658044, Final residual = 0.00025725713, No Iterations 3
time step continuity errors : sum local = 4.6958278e-05, global = 7.8432786e-07, cumulative = -0.00046504571
ExecutionTime = 11.288084 s  ClockTime = 11 s

Time = 50s

smoothSolver:  Solving for Ux, Initial residual = 0.0014110182, Final residual = 4.8611786e-05, No Iterations 3
smoothSolver:  Solving for Uy, Initial residual = 0.017598579, Final residual = 0.00060077584, No Iterations 3
smoothSolver:  Solving for Uz, Initial residual = 0.0013317438, Final residual = 4.6827786e-05, No Iterations 3
GAMG:  Solving for p, Initial residual = 0.026099091, Final residual = 0.00011644449, No Iterations 5
time step continuity errors : sum local = 2.1367625e-05, global = 1.9162197e-07, cumulative = -0.00046485409
ExecutionTime = 11.516577 s  ClockTime = 11 s

Time = 51s

smoothSolver:  Solving for Ux, Initial residual = 0.0013944537, Final residual = 4.7980417e-05, No Iterations 3
smoothSolver:  Solving for Uy, Initial residual = 0.017143456, Final residual = 0.00058501618, No Iterations 3
smoothSolver:  Solving for Uz, Initial residual = 0.0013091286, Final residual = 4.6008812e-05, No Iterations 3
GAMG:  Solving for p, Initial residual = 0.025894739, Final residual = 0.00011215795, No Iterations 5
time step continuity errors : sum local = 2.0570967e-05, global = 1.5176085e-07, cumulative = -0.00046470233
ExecutionTime = 11.7439 s  ClockTime = 11 s

Time = 52s

smoothSolver:  Solving for Ux, Initial residual = 0.0013801774, Final residual = 4.7428702e-05, No Iterations 3
smoothSolver:  Solving for Uy, Initial residual = 0.016738253, Final residual = 0.00057087373, No Iterations 3
smoothSolver:  Solving for Uz, Initial residual = 0.001286257, Final residual = 4.517795e-05, No Iterations 3
GAMG:  Solving for p, Initial residual = 0.025902612, Final residual = 0.00022163442, No Iterations 4
time step continuity errors : sum local = 4.0614451e-05, global = 2.8992698e-07, cumulative = -0.0004644124
ExecutionTime = 11.95888 s  ClockTime = 12 s

Time = 53s

smoothSolver:  Solving for Ux, Initial residual = 0.0013698854, Final residual = 4.7055062e-05, No Iterations 3
smoothSolver:  Solving for Uy, Initial residual = 0.01633963, Final residual = 0.00055751784, No Iterations 3
smoothSolver:  Solving for Uz, Initial residual = 0.0012692823, Final residual = 4.4582228e-05, No Iterations 3
GAMG:  Solving for p, Initial residual = 0.02565337, Final residual = 0.00021351253, No Iterations 3
time step continuity errors : sum local = 3.9232154e-05, global = 3.4197292e-07, cumulative = -0.00046407043
ExecutionTime = 12.161334 s  ClockTime = 12 s

Time = 54s

smoothSolver:  Solving for Ux, Initial residual = 0.0013601945, Final residual = 4.6721532e-05, No Iterations 3
smoothSolver:  Solving for Uy, Initial residual = 0.015949548, Final residual = 0.00054462308, No Iterations 3
smoothSolver:  Solving for Uz, Initial residual = 0.00125671, Final residual = 4.4163703e-05, No Iterations 3
GAMG:  Solving for p, Initial residual = 0.025124529, Final residual = 0.00023351848, No Iterations 3
time step continuity errors : sum local = 4.3135259e-05, global = -8.3587146e-08, cumulative = -0.00046415402
ExecutionTime = 12.365012 s  ClockTime = 12 s

Time = 55s

smoothSolver:  Solving for Ux, Initial residual = 0.001352194, Final residual = 4.6456578e-05, No Iterations 3
smoothSolver:  Solving for Uy, Initial residual = 0.01557249, Final residual = 0.00053201343, No Iterations 3
smoothSolver:  Solving for Uz, Initial residual = 0.0012447937, Final residual = 4.3760502e-05, No Iterations 3
GAMG:  Solving for p, Initial residual = 0.024661862, Final residual = 0.00014875716, No Iterations 4
time step continuity errors : sum local = 2.7632428e-05, global = -1.3124847e-07, cumulative = -0.00046428526
ExecutionTime = 12.580066 s  ClockTime = 12 s

Time = 56s

smoothSolver:  Solving for Ux, Initial residual = 0.0013469958, Final residual = 4.6317879e-05, No Iterations 3
smoothSolver:  Solving for Uy, Initial residual = 0.015200203, Final residual = 0.00051969013, No Iterations 3
smoothSolver:  Solving for Uz, Initial residual = 0.0012335145, Final residual = 4.337396e-05, No Iterations 3
GAMG:  Solving for p, Initial residual = 0.024256556, Final residual = 0.00023830369, No Iterations 3
time step continuity errors : sum local = 4.453577e-05, global = -3.283068e-08, cumulative = -0.00046431809
ExecutionTime = 12.784453 s  ClockTime = 13 s

Time = 57s

smoothSolver:  Solving for Ux, Initial residual = 0.0013392074, Final residual = 4.6089658e-05, No Iterations 3
smoothSolver:  Solving for Uy, Initial residual = 0.014828375, Final residual = 0.00050762206, No Iterations 3
smoothSolver:  Solving for Uz, Initial residual = 0.0012221734, Final residual = 4.2991104e-05, No Iterations 3
GAMG:  Solving for p, Initial residual = 0.023878876, Final residual = 0.00023330914, No Iterations 3
time step continuity errors : sum local = 4.3844229e-05, global = 2.8433574e-07, cumulative = -0.00046403376
ExecutionTime = 12.992956 s  ClockTime = 13 s

Time = 58s

smoothSolver:  Solving for Ux, Initial residual = 0.0013311655, Final residual = 4.5845296e-05, No Iterations 3
smoothSolver:  Solving for Uy, Initial residual = 0.014469744, Final residual = 0.00049583001, No Iterations 3
smoothSolver:  Solving for Uz, Initial residual = 0.0012105626, Final residual = 4.2600544e-05, No Iterations 3
GAMG:  Solving for p, Initial residual = 0.023500313, Final residual = 0.00016191323, No Iterations 4
time step continuity errors : sum local = 3.0581749e-05, global = 3.3849529e-07, cumulative = -0.00046369526
ExecutionTime = 13.220764 s  ClockTime = 13 s

Time = 59s

smoothSolver:  Solving for Ux, Initial residual = 0.0013229588, Final residual = 4.5572622e-05, No Iterations 3
smoothSolver:  Solving for Uy, Initial residual = 0.014130323, Final residual = 0.00048473781, No Iterations 3
smoothSolver:  Solving for Uz, Initial residual = 0.0011987948, Final residual = 4.220313e-05, No Iterations 3
GAMG:  Solving for p, Initial residual = 0.02326748, Final residual = 0.00017540792, No Iterations 4
time step continuity errors : sum local = 3.3270319e-05, global = 4.1500768e-07, cumulative = -0.00046328026
ExecutionTime = 13.43397 s  ClockTime = 13 s

Time = 60s

smoothSolver:  Solving for Ux, Initial residual = 0.0013134163, Final residual = 4.5250036e-05, No Iterations 3
smoothSolver:  Solving for Uy, Initial residual = 0.013796853, Final residual = 0.00047407013, No Iterations 3
smoothSolver:  Solving for Uz, Initial residual = 0.0011864738, Final residual = 4.178908e-05, No Iterations 3
GAMG:  Solving for p, Initial residual = 0.023031843, Final residual = 0.00021957392, No Iterations 3
time step continuity errors : sum local = 4.1796354e-05, global = 1.0256109e-06, cumulative = -0.00046225464
ExecutionTime = 13.640265 s  ClockTime = 13 s

Time = 61s

smoothSolver:  Solving for Ux, Initial residual = 0.0013036027, Final residual = 4.4936651e-05, No Iterations 3
smoothSolver:  Solving for Uy, Initial residual = 0.01348093, Final residual = 0.00046374867, No Iterations 3
smoothSolver:  Solving for Uz, Initial residual = 0.001175036, Final residual = 4.1423383e-05, No Iterations 3
GAMG:  Solving for p, Initial residual = 0.022733947, Final residual = 0.00019675533, No Iterations 4
time step continuity errors : sum local = 3.7607769e-05, global = 4.4853817e-07, cumulative = -0.00046180611
ExecutionTime = 13.852174 s  ClockTime = 14 s

Time = 62s

smoothSolver:  Solving for Ux, Initial residual = 0.0012949325, Final residual = 4.4659748e-05, No Iterations 3
smoothSolver:  Solving for Uy, Initial residual = 0.013196362, Final residual = 0.0004542035, No Iterations 3
smoothSolver:  Solving for Uz, Initial residual = 0.0011620711, Final residual = 4.0985316e-05, No Iterations 3
GAMG:  Solving for p, Initial residual = 0.022527209, Final residual = 0.00022199758, No Iterations 3
time step continuity errors : sum local = 4.254371e-05, global = 9.4703151e-07, cumulative = -0.00046085908
ExecutionTime = 14.055668 s  ClockTime = 14 s

Time = 63s

smoothSolver:  Solving for Ux, Initial residual = 0.0012864714, Final residual = 4.4420425e-05, No Iterations 3
smoothSolver:  Solving for Uy, Initial residual = 0.012909409, Final residual = 0.00044486855, No Iterations 3
smoothSolver:  Solving for Uz, Initial residual = 0.001150983, Final residual = 4.0618412e-05, No Iterations 3
GAMG:  Solving for p, Initial residual = 0.022230037, Final residual = 0.00016142155, No Iterations 4
time step continuity errors : sum local = 3.1054856e-05, global = 4.1859083e-07, cumulative = -0.00046044048
ExecutionTime = 14.269642 s  ClockTime = 14 s

Time = 64s

smoothSolver:  Solving for Ux, Initial residual = 0.0012799031, Final residual = 4.4266494e-05, No Iterations 3
smoothSolver:  Solving for Uy, Initial residual = 0.012625206, Final residual = 0.00043549371, No Iterations 3
smoothSolver:  Solving for Uz, Initial residual = 0.0011382167, Final residual = 4.0186642e-05, No Iterations 3
GAMG:  Solving for p, Initial residual = 0.022051615, Final residual = 0.00021456291, No Iterations 3
time step continuity errors : sum local = 4.1407182e-05, global = 6.4298707e-07, cumulative = -0.0004597975
ExecutionTime = 14.474085 s  ClockTime = 14 s

Time = 65s

smoothSolver:  Solving for Ux, Initial residual = 0.0012722989, Final residual = 4.4075774e-05, No Iterations 3
smoothSolver:  Solving for Uy, Initial residual = 0.012334262, Final residual = 0.00042587561, No Iterations 3
smoothSolver:  Solving for Uz, Initial residual = 0.0011266325, Final residual = 3.981638e-05, No Iterations 3
GAMG:  Solving for p, Initial residual = 0.021808865, Final residual = 0.00012996098, No Iterations 4
time step continuity errors : sum local = 2.5182646e-05, global = 3.104663e-07, cumulative = -0.00045948703
ExecutionTime = 14.687272 s  ClockTime = 14 s

Time = 66s

smoothSolver:  Solving for Ux, Initial residual = 0.0012657831, Final residual = 4.3927266e-05, No Iterations 3
smoothSolver:  Solving for Uy, Initial residual = 0.01204975, Final residual = 0.00041632552, No Iterations 3
smoothSolver:  Solving for Uz, Initial residual = 0.0011145248, Final residual = 3.9424238e-05, No Iterations 3
GAMG:  Solving for p, Initial residual = 0.021600696, Final residual = 0.00020452684, No Iterations 3
time step continuity errors : sum local = 3.9778551e-05, global = 4.5371724e-07, cumulative = -0.00045903331
ExecutionTime = 14.89212 s  ClockTime = 15 s

Time = 67s

smoothSolver:  Solving for Ux, Initial residual = 0.0012580236, Final residual = 4.3742884e-05, No Iterations 3
smoothSolver:  Solving for Uy, Initial residual = 0.011788178, Final residual = 0.00040761469, No Iterations 3
smoothSolver:  Solving for Uz, Initial residual = 0.0011041043, Final residual = 3.9105364e-05, No Iterations 3
GAMG:  Solving for p, Initial residual = 0.021336329, Final residual = 0.00021131027, No Iterations 3
time step continuity errors : sum local = 4.1271669e-05, global = 4.8931529e-07, cumulative = -0.000458544
ExecutionTime = 15.094242 s  ClockTime = 15 s

Time = 68s

smoothSolver:  Solving for Ux, Initial residual = 0.0012506141, Final residual = 4.3571249e-05, No Iterations 3
smoothSolver:  Solving for Uy, Initial residual = 0.011554328, Final residual = 0.0003999987, No Iterations 3
smoothSolver:  Solving for Uz, Initial residual = 0.0010942305, Final residual = 3.8803149e-05, No Iterations 3
GAMG:  Solving for p, Initial residual = 0.02109655, Final residual = 0.00013498817, No Iterations 4
time step continuity errors : sum local = 2.6476837e-05, global = 3.2481117e-07, cumulative = -0.00045821919
ExecutionTime = 15.311667 s  ClockTime = 15 s

Time = 69s

smoothSolver:  Solving for Ux, Initial residual = 0.0012439772, Final residual = 4.343235e-05, No Iterations 3
smoothSolver:  Solving for Uy, Initial residual = 0.011353679, Final residual = 0.00039347479, No Iterations 3
smoothSolver:  Solving for Uz, Initial residual = 0.0010846118, Final residual = 3.8498579e-05, No Iterations 3
GAMG:  Solving for p, Initial residual = 0.020928609, Final residual = 0.00020644558, No Iterations 3
time step continuity errors : sum local = 4.064432e-05, global = 6.3625303e-07, cumulative = -0.00045758293
ExecutionTime = 15.514246 s  ClockTime = 15 s

Time = 70s

smoothSolver:  Solving for Ux, Initial residual = 0.0012364439, Final residual = 4.3255737e-05, No Iterations 3
smoothSolver:  Solving for Uy, Initial residual = 0.011157981, Final residual = 0.0003871614, No Iterations 3
smoothSolver:  Solving for Uz, Initial residual = 0.0010752802, Final residual = 3.8208618e-05, No Iterations 3
GAMG:  Solving for p, Initial residual = 0.020684453, Final residual = 0.00013660209, No Iterations 4
time step continuity errors : sum local = 2.6999853e-05, global = 4.0788735e-07, cumulative = -0.00045717505
ExecutionTime = 15.730582 s  ClockTime = 16 s

Time = 71s

smoothSolver:  Solving for Ux, Initial residual = 0.0012295662, Final residual = 4.3089157e-05, No Iterations 3
smoothSolver:  Solving for Uy, Initial residual = 0.010964261, Final residual = 0.00038088286, No Iterations 3
smoothSolver:  Solving for Uz, Initial residual = 0.0010652886, Final residual = 3.7885003e-05, No Iterations 3
GAMG:  Solving for p, Initial residual = 0.020564116, Final residual = 0.0001993719, No Iterations 3
time step continuity errors : sum local = 3.9538479e-05, global = 7.462946e-07, cumulative = -0.00045642875
ExecutionTime = 15.934932 s  ClockTime = 16 s

Time = 72s

smoothSolver:  Solving for Ux, Initial residual = 0.0012218378, Final residual = 4.287102e-05, No Iterations 3
smoothSolver:  Solving for Uy, Initial residual = 0.010755099, Final residual = 0.00037414813, No Iterations 3
smoothSolver:  Solving for Uz, Initial residual = 0.0010556656, Final residual = 3.7576853e-05, No Iterations 3
GAMG:  Solving for p, Initial residual = 0.020327015, Final residual = 0.00013530884, No Iterations 4
time step continuity errors : sum local = 2.6933491e-05, global = 4.2393279e-07, cumulative = -0.00045600482
ExecutionTime = 16.152992 s  ClockTime = 16 s

Time = 73s

smoothSolver:  Solving for Ux, Initial residual = 0.0012151282, Final residual = 4.2684083e-05, No Iterations 3
smoothSolver:  Solving for Uy, Initial residual = 0.010546677, Final residual = 0.00036722103, No Iterations 3
smoothSolver:  Solving for Uz, Initial residual = 0.0010450641, Final residual = 3.7222778e-05, No Iterations 3
GAMG:  Solving for p, Initial residual = 0.020165004, Final residual = 0.00019612429, No Iterations 3
time step continuity errors : sum local = 3.9157336e-05, global = 6.9891281e-07, cumulative = -0.00045530591
ExecutionTime = 16.354975 s  ClockTime = 16 s

Time = 74s

smoothSolver:  Solving for Ux, Initial residual = 0.0012076789, Final residual = 4.2460727e-05, No Iterations 3
smoothSolver:  Solving for Uy, Initial residual = 0.010344853, Final residual = 0.00036055409, No Iterations 3
smoothSolver:  Solving for Uz, Initial residual = 0.0010353297, Final residual = 3.69098e-05, No Iterations 3
GAMG:  Solving for p, Initial residual = 0.019961422, Final residual = 0.00012800636, No Iterations 4
time step continuity errors : sum local = 2.5650108e-05, global = 3.8347297e-07, cumulative = -0.00045492243
ExecutionTime = 16.570658 s  ClockTime = 16 s

Time = 75s

smoothSolver:  Solving for Ux, Initial residual = 0.0012012987, Final residual = 4.2261209e-05, No Iterations 3
smoothSolver:  Solving for Uy, Initial residual = 0.010163084, Final residual = 0.00035445374, No Iterations 3
smoothSolver:  Solving for Uz, Initial residual = 0.0010250209, Final residual = 3.656738e-05, No Iterations 3
GAMG:  Solving for p, Initial residual = 0.019784448, Final residual = 0.00019200823, No Iterations 3
time step continuity errors : sum local = 3.8593605e-05, global = 5.7679042e-07, cumulative = -0.00045434564
ExecutionTime = 16.77405 s  ClockTime = 17 s

Time = 76s

smoothSolver:  Solving for Ux, Initial residual = 0.0011940264, Final residual = 4.2013037e-05, No Iterations 3
smoothSolver:  Solving for Uy, Initial residual = 0.0099990164, Final residual = 0.00034895649, No Iterations 3
smoothSolver:  Solving for Uz, Initial residual = 0.0010158578, Final residual = 3.6270017e-05, No Iterations 3
GAMG:  Solving for p, Initial residual = 0.019549539, Final residual = 0.00012028063, No Iterations 4
time step continuity errors : sum local = 2.4262794e-05, global = 3.0817899e-07, cumulative = -0.00045403746
ExecutionTime = 16.987575 s  ClockTime = 17 s

Time = 77s

smoothSolver:  Solving for Ux, Initial residual = 0.0011876627, Final residual = 4.1797495e-05, No Iterations 3
smoothSolver:  Solving for Uy, Initial residual = 0.0098618673, Final residual = 0.00034430867, No Iterations 3
smoothSolver:  Solving for Uz, Initial residual = 0.0010064753, Final residual = 3.5952742e-05, No Iterations 3
GAMG:  Solving for p, Initial residual = 0.019426926, Final residual = 0.00018995174, No Iterations 3
time step continuity errors : sum local = 3.8435106e-05, global = 4.7513911e-07, cumulative = -0.00045356233
ExecutionTime = 17.188973 s  ClockTime = 17 s

Time = 78s

smoothSolver:  Solving for Ux, Initial residual = 0.0011804463, Final residual = 4.155448e-05, No Iterations 3
smoothSolver:  Solving for Uy, Initial residual = 0.0097261883, Final residual = 0.00033995202, No Iterations 3
smoothSolver:  Solving for Uz, Initial residual = 0.00099790369, Final residual = 3.5673151e-05, No Iterations 3
GAMG:  Solving for p, Initial residual = 0.019310351, Final residual = 0.00011535243, No Iterations 4
time step continuity errors : sum local = 2.3422293e-05, global = 2.719946e-07, cumulative = -0.00045329033
ExecutionTime = 17.404709 s  ClockTime = 17 s

Time = 79s

smoothSolver:  Solving for Ux, Initial residual = 0.0011742128, Final residual = 4.1343653e-05, No Iterations 3
smoothSolver:  Solving for Uy, Initial residual = 0.0096072313, Final residual = 0.00033617083, No Iterations 3
smoothSolver:  Solving for Uz, Initial residual = 0.00098914588, Final residual = 3.5375201e-05, No Iterations 3
GAMG:  Solving for p, Initial residual = 0.019245303, Final residual = 0.00018969116, No Iterations 3
time step continuity errors : sum local = 3.8637142e-05, global = 4.5971164e-07, cumulative = -0.00045283062
ExecutionTime = 17.613126 s  ClockTime = 17 s

Time = 80s

smoothSolver:  Solving for Ux, Initial residual = 0.0011672034, Final residual = 4.1087252e-05, No Iterations 3
smoothSolver:  Solving for Uy, Initial residual = 0.0094842257, Final residual = 0.00033229372, No Iterations 3
smoothSolver:  Solving for Uz, Initial residual = 0.00098092049, Final residual = 3.5095666e-05, No Iterations 3
GAMG:  Solving for p, Initial residual = 0.019089161, Final residual = 0.00011211221, No Iterations 4
time step continuity errors : sum local = 2.2912595e-05, global = 3.1541812e-07, cumulative = -0.0004525152
ExecutionTime = 17.833453 s  ClockTime = 18 s

Time = 81s

smoothSolver:  Solving for Ux, Initial residual = 0.0011611607, Final residual = 4.0870705e-05, No Iterations 3
smoothSolver:  Solving for Uy, Initial residual = 0.0093765052, Final residual = 0.00032888756, No Iterations 3
smoothSolver:  Solving for Uz, Initial residual = 0.00097235811, Final residual = 3.4798022e-05, No Iterations 3
GAMG:  Solving for p, Initial residual = 0.01901953, Final residual = 0.00018425849, No Iterations 3
time step continuity errors : sum local = 3.7772103e-05, global = 5.1547224e-07, cumulative = -0.00045199973
ExecutionTime = 18.037501 s  ClockTime = 18 s

Time = 82s

smoothSolver:  Solving for Ux, Initial residual = 0.0011541395, Final residual = 4.06301e-05, No Iterations 3
smoothSolver:  Solving for Uy, Initial residual = 0.009254016, Final residual = 0.00032472995, No Iterations 3
smoothSolver:  Solving for Uz, Initial residual = 0.00096398699, Final residual = 3.4516679e-05, No Iterations 3
GAMG:  Solving for p, Initial residual = 0.0188566, Final residual = 0.0001113222, No Iterations 4
time step continuity errors : sum local = 2.2894914e-05, global = 3.5001376e-07, cumulative = -0.00045164971
ExecutionTime = 18.253377 s  ClockTime = 18 s

Time = 83s

smoothSolver:  Solving for Ux, Initial residual = 0.0011477648, Final residual = 4.041509e-05, No Iterations 3
smoothSolver:  Solving for Uy, Initial residual = 0.0091355528, Final residual = 0.00032058715, No Iterations 3
smoothSolver:  Solving for Uz, Initial residual = 0.00095517267, Final residual = 3.4215524e-05, No Iterations 3
GAMG:  Solving for p, Initial residual = 0.018699598, Final residual = 0.00017766878, No Iterations 3
time step continuity errors : sum local = 3.6640062e-05, global = 5.756209e-07, cumulative = -0.00045107409
ExecutionTime = 18.457213 s  ClockTime = 18 s

Time = 84s

smoothSolver:  Solving for Ux, Initial residual = 0.0011404403, Final residual = 4.0177062e-05, No Iterations 3
smoothSolver:  Solving for Uy, Initial residual = 0.0089991681, Final residual = 0.00031574856, No Iterations 3
smoothSolver:  Solving for Uz, Initial residual = 0.00094662184, Final residual = 3.3932423e-05, No Iterations 3
GAMG:  Solving for p, Initial residual = 0.018505191, Final residual = 0.00018272412, No Iterations 3
time step continuity errors : sum local = 3.7798814e-05, global = 6.1041765e-07, cumulative = -0.00045046368
ExecutionTime = 18.65969 s  ClockTime = 19 s

Time = 85s

smoothSolver:  Solving for Ux, Initial residual = 0.0011332771, Final residual = 3.9950193e-05, No Iterations 3
smoothSolver:  Solving for Uy, Initial residual = 0.0088675118, Final residual = 0.00031098036, No Iterations 3
smoothSolver:  Solving for Uz, Initial residual = 0.00093799645, Final residual = 3.3644473e-05, No Iterations 3
GAMG:  Solving for p, Initial residual = 0.018378304, Final residual = 0.00011466836, No Iterations 4
time step continuity errors : sum local = 2.3793082e-05, global = 3.5429604e-07, cumulative = -0.00045010938
ExecutionTime = 18.874586 s  ClockTime = 19 s

Time = 86s

smoothSolver:  Solving for Ux, Initial residual = 0.0011268076, Final residual = 3.9745701e-05, No Iterations 3
smoothSolver:  Solving for Uy, Initial residual = 0.0087616641, Final residual = 0.00030713384, No Iterations 3
smoothSolver:  Solving for Uz, Initial residual = 0.00092934859, Final residual = 3.3347092e-05, No Iterations 3
GAMG:  Solving for p, Initial residual = 0.018305851, Final residual = 0.00017584453, No Iterations 3
time step continuity errors : sum local = 3.6580378e-05, global = 5.5148248e-07, cumulative = -0.0004495579
ExecutionTime = 19.079065 s  ClockTime = 19 s

Time = 87s

smoothSolver:  Solving for Ux, Initial residual = 0.0011199617, Final residual = 3.9524132e-05, No Iterations 3
smoothSolver:  Solving for Uy, Initial residual = 0.0086758427, Final residual = 0.00030401628, No Iterations 3
smoothSolver:  Solving for Uz, Initial residual = 0.00092156173, Final residual = 3.3086214e-05, No Iterations 3
GAMG:  Solving for p, Initial residual = 0.018172821, Final residual = 0.00017973559, No Iterations 3
time step continuity errors : sum local = 3.7504182e-05, global = 5.0581679e-07, cumulative = -0.00044905208
ExecutionTime = 19.280513 s  ClockTime = 19 s

Time = 88s

smoothSolver:  Solving for Ux, Initial residual = 0.0011135917, Final residual = 3.9326036e-05, No Iterations 3
smoothSolver:  Solving for Uy, Initial residual = 0.0086110403, Final residual = 0.00030159036, No Iterations 3
smoothSolver:  Solving for Uz, Initial residual = 0.00091408471, Final residual = 3.2836335e-05, No Iterations 3
GAMG:  Solving for p, Initial residual = 0.018002998, Final residual = 0.00010755736, No Iterations 4
time step continuity errors : sum local = 2.2510254e-05, global = 2.674252e-07, cumulative = -0.00044878466
ExecutionTime = 19.496706 s  ClockTime = 19 s

Time = 89s

smoothSolver:  Solving for Ux, Initial residual = 0.0011076977, Final residual = 3.9146009e-05, No Iterations 3
smoothSolver:  Solving for Uy, Initial residual = 0.0085454126, Final residual = 0.00029899146, No Iterations 3
smoothSolver:  Solving for Uz, Initial residual = 0.00090621387, Final residual = 3.2567448e-05, No Iterations 3
GAMG:  Solving for p, Initial residual = 0.017894386, Final residual = 0.00017333332, No Iterations 3
time step continuity errors : sum local = 3.6372722e-05, global = 4.163485e-07, cumulative = -0.00044836831
ExecutionTime = 19.700281 s  ClockTime = 20 s

Time = 90s

smoothSolver:  Solving for Ux, Initial residual = 0.001100663, Final residual = 3.891504e-05, No Iterations 3
smoothSolver:  Solving for Uy, Initial residual = 0.0084470923, Final residual = 0.00029513954, No Iterations 3
smoothSolver:  Solving for Uz, Initial residual = 0.00089828366, Final residual = 3.2301878e-05, No Iterations 3
GAMG:  Solving for p, Initial residual = 0.017785228, Final residual = 0.00017604749, No Iterations 3
time step continuity errors : sum local = 3.7056584e-05, global = 3.8423518e-07, cumulative = -0.00044798407
ExecutionTime = 19.903564 s  ClockTime = 20 s

Time = 91s

smoothSolver:  Solving for Ux, Initial residual = 0.0010935826, Final residual = 3.8667504e-05, No Iterations 3
smoothSolver:  Solving for Uy, Initial residual = 0.0083447708, Final residual = 0.00029105061, No Iterations 3
smoothSolver:  Solving for Uz, Initial residual = 0.00089013796, Final residual = 3.2027549e-05, No Iterations 3
GAMG:  Solving for p, Initial residual = 0.01769268, Final residual = 0.00010666866, No Iterations 4
time step continuity errors : sum local = 2.2520283e-05, global = 2.0097452e-07, cumulative = -0.0004477831
ExecutionTime = 20.117694 s  ClockTime = 20 s

Time = 92s

smoothSolver:  Solving for Ux, Initial residual = 0.0010868307, Final residual = 3.8421068e-05, No Iterations 3
smoothSolver:  Solving for Uy, Initial residual = 0.0082533023, Final residual = 0.00028724959, No Iterations 3
smoothSolver:  Solving for Uz, Initial residual = 0.00088179588, Final residual = 3.1741426e-05, No Iterations 3
GAMG:  Solving for p, Initial residual = 0.017633273, Final residual = 0.00016749014, No Iterations 3
time step continuity errors : sum local = 3.544968e-05, global = 3.6134658e-07, cumulative = -0.00044742175
ExecutionTime = 20.322457 s  ClockTime = 20 s

Time = 93s

smoothSolver:  Solving for Ux, Initial residual = 0.0010796629, Final residual = 3.8172134e-05, No Iterations 3
smoothSolver:  Solving for Uy, Initial residual = 0.0081628862, Final residual = 0.00028363419, No Iterations 3
smoothSolver:  Solving for Uz, Initial residual = 0.0008740923, Final residual = 3.1487505e-05, No Iterations 3
GAMG:  Solving for p, Initial residual = 0.017483254, Final residual = 0.00017133554, No Iterations 3
time step continuity errors : sum local = 3.6369623e-05, global = 3.9116227e-07, cumulative = -0.00044703059
ExecutionTime = 20.525728 s  ClockTime = 20 s

Time = 94s

smoothSolver:  Solving for Ux, Initial residual = 0.0010728348, Final residual = 3.7932278e-05, No Iterations 3
smoothSolver:  Solving for Uy, Initial residual = 0.0080888913, Final residual = 0.0002806907, No Iterations 3
smoothSolver:  Solving for Uz, Initial residual = 0.00086667924, Final residual = 3.1239874e-05, No Iterations 3
GAMG:  Solving for p, Initial residual = 0.017455505, Final residual = 0.0001025276, No Iterations 4
time step continuity errors : sum local = 2.1827314e-05, global = 2.5903552e-07, cumulative = -0.00044677155
ExecutionTime = 20.741644 s  ClockTime = 21 s

Time = 95s

smoothSolver:  Solving for Ux, Initial residual = 0.0010670656, Final residual = 3.7718231e-05, No Iterations 3
smoothSolver:  Solving for Uy, Initial residual = 0.0080375849, Final residual = 0.00027853146, No Iterations 3
smoothSolver:  Solving for Uz, Initial residual = 0.00085942181, Final residual = 3.0990017e-05, No Iterations 3
GAMG:  Solving for p, Initial residual = 0.017376209, Final residual = 0.00017004502, No Iterations 3
time step continuity errors : sum local = 3.62919e-05, global = 4.3627693e-07, cumulative = -0.00044633528
ExecutionTime = 20.943204 s  ClockTime = 21 s

Time = 96s

smoothSolver:  Solving for Ux, Initial residual = 0.0010606782, Final residual = 3.7483873e-05, No Iterations 3
smoothSolver:  Solving for Uy, Initial residual = 0.0079671039, Final residual = 0.00027578531, No Iterations 3
smoothSolver:  Solving for Uz, Initial residual = 0.00085228648, Final residual = 3.0745837e-05, No Iterations 3
GAMG:  Solving for p, Initial residual = 0.017156607, Final residual = 9.6812147e-05, No Iterations 4
time step continuity errors : sum local = 2.0719396e-05, global = 2.8564331e-07, cumulative = -0.00044604963
ExecutionTime = 21.160438 s  ClockTime = 21 s

Time = 97s

smoothSolver:  Solving for Ux, Initial residual = 0.0010552268, Final residual = 3.7255778e-05, No Iterations 3
smoothSolver:  Solving for Uy, Initial residual = 0.0079028871, Final residual = 0.00027319163, No Iterations 3
smoothSolver:  Solving for Uz, Initial residual = 0.0008449184, Final residual = 3.0482499e-05, No Iterations 3
GAMG:  Solving for p, Initial residual = 0.017085953, Final residual = 0.00016353743, No Iterations 3
time step continuity errors : sum local = 3.5088836e-05, global = 4.5065769e-07, cumulative = -0.00044559898
ExecutionTime = 21.364278 s  ClockTime = 21 s

Time = 98s

smoothSolver:  Solving for Ux, Initial residual = 0.0010486848, Final residual = 3.6994591e-05, No Iterations 3
smoothSolver:  Solving for Uy, Initial residual = 0.0078212019, Final residual = 0.00027002067, No Iterations 3
smoothSolver:  Solving for Uz, Initial residual = 0.00083763757, Final residual = 3.0225225e-05, No Iterations 3
GAMG:  Solving for p, Initial residual = 0.016994806, Final residual = 9.2341449e-05, No Iterations 4
time step continuity errors : sum local = 1.9870805e-05, global = 2.8716776e-07, cumulative = -0.00044531181
ExecutionTime = 21.577866 s  ClockTime = 21 s

Time = 99s

smoothSolver:  Solving for Ux, Initial residual = 0.0010428763, Final residual = 3.6772929e-05, No Iterations 3
smoothSolver:  Solving for Uy, Initial residual = 0.0077632467, Final residual = 0.00026754414, No Iterations 3
smoothSolver:  Solving for Uz, Initial residual = 0.00083042874, Final residual = 2.9965832e-05, No Iterations 3
GAMG:  Solving for p, Initial residual = 0.016927376, Final residual = 0.00016549726, No Iterations 3
time step continuity errors : sum local = 3.5709504e-05, global = 4.1745056e-07, cumulative = -0.00044489436
ExecutionTime = 21.78096 s  ClockTime = 22 s

Time = 100s

smoothSolver:  Solving for Ux, Initial residual = 0.0010365148, Final residual = 3.6534164e-05, No Iterations 3
smoothSolver:  Solving for Uy, Initial residual = 0.0077027515, Final residual = 0.00026498913, No Iterations 3
smoothSolver:  Solving for Uz, Initial residual = 0.00082357781, Final residual = 2.9722128e-05, No Iterations 3
GAMG:  Solving for p, Initial residual = 0.016829235, Final residual = 9.4811982e-05, No Iterations 4
time step continuity errors : sum local = 2.0516986e-05, global = 2.73772e-07, cumulative = -0.00044462059
ExecutionTime = 21.99378 s  ClockTime = 22 s

Time = 101s

smoothSolver:  Solving for Ux, Initial residual = 0.0010309252, Final residual = 3.632696e-05, No Iterations 3
smoothSolver:  Solving for Uy, Initial residual = 0.0076603872, Final residual = 0.00026319855, No Iterations 3
smoothSolver:  Solving for Uz, Initial residual = 0.00081673027, Final residual = 2.9472328e-05, No Iterations 3
GAMG:  Solving for p, Initial residual = 0.016771311, Final residual = 9.1585212e-05, No Iterations 4
time step continuity errors : sum local = 1.9867443e-05, global = 2.5051674e-07, cumulative = -0.00044437007
ExecutionTime = 22.20769 s  ClockTime = 22 s

Time = 102s

smoothSolver:  Solving for Ux, Initial residual = 0.001025132, Final residual = 3.6119345e-05, No Iterations 3
smoothSolver:  Solving for Uy, Initial residual = 0.0076116591, Final residual = 0.00026131958, No Iterations 3
smoothSolver:  Solving for Uz, Initial residual = 0.00080991927, Final residual = 2.922419e-05, No Iterations 3
GAMG:  Solving for p, Initial residual = 0.016576963, Final residual = 0.00015958871, No Iterations 3
time step continuity errors : sum local = 3.4700385e-05, global = 3.3658253e-07, cumulative = -0.00044403349
ExecutionTime = 22.411254 s  ClockTime = 22 s

Time = 103s

smoothSolver:  Solving for Ux, Initial residual = 0.0010185376, Final residual = 3.5886732e-05, No Iterations 3
smoothSolver:  Solving for Uy, Initial residual = 0.0075416827, Final residual = 0.00025876022, No Iterations 3
smoothSolver:  Solving for Uz, Initial residual = 0.00080317431, Final residual = 2.8979293e-05, No Iterations 3
GAMG:  Solving for p, Initial residual = 0.016428786, Final residual = 9.1698435e-05, No Iterations 4
time step continuity errors : sum local = 1.9989125e-05, global = 2.1456873e-07, cumulative = -0.00044381892
ExecutionTime = 22.625895 s  ClockTime = 23 s

Time = 104s

smoothSolver:  Solving for Ux, Initial residual = 0.0010127972, Final residual = 3.5676442e-05, No Iterations 3
smoothSolver:  Solving for Uy, Initial residual = 0.0074789775, Final residual = 0.00025646803, No Iterations 3
smoothSolver:  Solving for Uz, Initial residual = 0.0007962915, Final residual = 2.8722348e-05, No Iterations 3
GAMG:  Solving for p, Initial residual = 0.016370507, Final residual = 0.00016352125, No Iterations 3
time step continuity errors : sum local = 3.5726273e-05, global = 3.1843264e-07, cumulative = -0.00044350048
ExecutionTime = 22.827275 s  ClockTime = 23 s

Time = 105s

smoothSolver:  Solving for Ux, Initial residual = 0.0010064588, Final residual = 3.5457898e-05, No Iterations 3
smoothSolver:  Solving for Uy, Initial residual = 0.0074038246, Final residual = 0.00025375777, No Iterations 3
smoothSolver:  Solving for Uz, Initial residual = 0.00078952847, Final residual = 2.8479251e-05, No Iterations 3
GAMG:  Solving for p, Initial residual = 0.016224535, Final residual = 9.3422311e-05, No Iterations 4
time step continuity errors : sum local = 2.0460474e-05, global = 2.0539946e-07, cumulative = -0.00044329509
ExecutionTime = 23.04191 s  ClockTime = 23 s

Time = 106s

smoothSolver:  Solving for Ux, Initial residual = 0.0010010222, Final residual = 3.5266398e-05, No Iterations 3
smoothSolver:  Solving for Uy, Initial residual = 0.0073459225, Final residual = 0.00025151021, No Iterations 3
smoothSolver:  Solving for Uz, Initial residual = 0.00078276426, Final residual = 2.8233147e-05, No Iterations 3
GAMG:  Solving for p, Initial residual = 0.016143373, Final residual = 8.773643e-05, No Iterations 4
time step continuity errors : sum local = 1.925662e-05, global = 2.01203e-07, cumulative = -0.00044309388
ExecutionTime = 23.257929 s  ClockTime = 23 s

Time = 107s

smoothSolver:  Solving for Ux, Initial residual = 0.00099560306, Final residual = 3.5068052e-05, No Iterations 3
smoothSolver:  Solving for Uy, Initial residual = 0.0072911909, Final residual = 0.00024937997, No Iterations 3
smoothSolver:  Solving for Uz, Initial residual = 0.00077613797, Final residual = 2.7993082e-05, No Iterations 3
GAMG:  Solving for p, Initial residual = 0.016025507, Final residual = 0.00015140139, No Iterations 3
time step continuity errors : sum local = 3.3302944e-05, global = 3.009651e-07, cumulative = -0.00044279292
ExecutionTime = 23.460848 s  ClockTime = 23 s

Time = 108s

smoothSolver:  Solving for Ux, Initial residual = 0.00098937286, Final residual = 3.4845098e-05, No Iterations 3
smoothSolver:  Solving for Uy, Initial residual = 0.0072321842, Final residual = 0.0002471289, No Iterations 3
smoothSolver:  Solving for Uz, Initial residual = 0.00076973777, Final residual = 2.7761902e-05, No Iterations 3
GAMG:  Solving for p, Initial residual = 0.015919894, Final residual = 0.00015796935, No Iterations 3
time step continuity errors : sum local = 3.4833347e-05, global = 3.2812589e-07, cumulative = -0.00044246479
ExecutionTime = 23.664517 s  ClockTime = 24 s

Time = 109s

smoothSolver:  Solving for Ux, Initial residual = 0.00098355431, Final residual = 3.4644981e-05, No Iterations 3
smoothSolver:  Solving for Uy, Initial residual = 0.0071837267, Final residual = 0.00024536966, No Iterations 3
smoothSolver:  Solving for Uz, Initial residual = 0.00076349357, Final residual = 2.7533543e-05, No Iterations 3
GAMG:  Solving for p, Initial residual = 0.015806315, Final residual = 8.8344699e-05, No Iterations 4
time step continuity errors : sum local = 1.9528153e-05, global = 2.287289e-07, cumulative = -0.00044223606
ExecutionTime = 23.878765 s  ClockTime = 24 s

Time = 110s

smoothSolver:  Solving for Ux, Initial residual = 0.00097878424, Final residual = 3.4484835e-05, No Iterations 3
smoothSolver:  Solving for Uy, Initial residual = 0.007156883, Final residual = 0.0002443827, No Iterations 3
smoothSolver:  Solving for Uz, Initial residual = 0.00075752745, Final residual = 2.7309803e-05, No Iterations 3
GAMG:  Solving for p, Initial residual = 0.015700506, Final residual = 8.5159755e-05, No Iterations 4
time step continuity errors : sum local = 1.8865728e-05, global = 2.2468499e-07, cumulative = -0.00044201138
ExecutionTime = 24.093094 s  ClockTime = 24 s

Time = 111s

smoothSolver:  Solving for Ux, Initial residual = 0.00097396703, Final residual = 3.4326819e-05, No Iterations 3
smoothSolver:  Solving for Uy, Initial residual = 0.0071303666, Final residual = 0.00024342749, No Iterations 3
smoothSolver:  Solving for Uz, Initial residual = 0.00075184294, Final residual = 2.7096694e-05, No Iterations 3
GAMG:  Solving for p, Initial residual = 0.015631174, Final residual = 0.00015285207, No Iterations 3
time step continuity errors : sum local = 3.3937875e-05, global = 3.2122964e-07, cumulative = -0.00044169015
ExecutionTime = 24.298885 s  ClockTime = 24 s

Time = 112s

smoothSolver:  Solving for Ux, Initial residual = 0.00096828215, Final residual = 3.4135497e-05, No Iterations 3
smoothSolver:  Solving for Uy, Initial residual = 0.0070901029, Final residual = 0.000241978, No Iterations 3
smoothSolver:  Solving for Uz, Initial residual = 0.00074621504, Final residual = 2.6891035e-05, No Iterations 3
GAMG:  Solving for p, Initial residual = 0.015561356, Final residual = 8.3072319e-05, No Iterations 4
time step continuity errors : sum local = 1.8488588e-05, global = 2.1582591e-07, cumulative = -0.00044147432
ExecutionTime = 24.513444 s  ClockTime = 24 s

Time = 113s

smoothSolver:  Solving for Ux, Initial residual = 0.00096332958, Final residual = 3.3970373e-05, No Iterations 3
smoothSolver:  Solving for Uy, Initial residual = 0.007061128, Final residual = 0.00024095221, No Iterations 3
smoothSolver:  Solving for Uz, Initial residual = 0.00074066535, Final residual = 2.6684684e-05, No Iterations 3
GAMG:  Solving for p, Initial residual = 0.015485228, Final residual = 8.1005176e-05, No Iterations 4
time step continuity errors : sum local = 1.806782e-05, global = 2.0611866e-07, cumulative = -0.0004412682
ExecutionTime = 24.730593 s  ClockTime = 25 s

Time = 114s

smoothSolver:  Solving for Ux, Initial residual = 0.00095822417, Final residual = 3.3798906e-05, No Iterations 3
smoothSolver:  Solving for Uy, Initial residual = 0.0070246727, Final residual = 0.0002397202, No Iterations 3
smoothSolver:  Solving for Uz, Initial residual = 0.00073504004, Final residual = 2.647589e-05, No Iterations 3
GAMG:  Solving for p, Initial residual = 0.015375201, Final residual = 0.00015190338, No Iterations 3
time step continuity errors : sum local = 3.3954105e-05, global = 2.9299269e-07, cumulative = -0.00044097521
ExecutionTime = 24.931376 s  ClockTime = 25 s

Time = 115s

smoothSolver:  Solving for Ux, Initial residual = 0.00095251544, Final residual = 3.3600644e-05, No Iterations 3
smoothSolver:  Solving for Uy, Initial residual = 0.0069693545, Final residual = 0.00023792403, No Iterations 3
smoothSolver:  Solving for Uz, Initial residual = 0.00072923212, Final residual = 2.6266056e-05, No Iterations 3
GAMG:  Solving for p, Initial residual = 0.015208391, Final residual = 8.4503298e-05, No Iterations 4
time step continuity errors : sum local = 1.8930119e-05, global = 1.9216549e-07, cumulative = -0.00044078304
ExecutionTime = 25.145988 s  ClockTime = 25 s

Time = 116s

smoothSolver:  Solving for Ux, Initial residual = 0.00094755555, Final residual = 3.3420886e-05, No Iterations 3
smoothSolver:  Solving for Uy, Initial residual = 0.0069205162, Final residual = 0.00023636481, No Iterations 3
smoothSolver:  Solving for Uz, Initial residual = 0.00072334278, Final residual = 2.6043806e-05, No Iterations 3
GAMG:  Solving for p, Initial residual = 0.015074318, Final residual = 8.3857186e-05, No Iterations 4
time step continuity errors : sum local = 1.8820709e-05, global = 1.7399904e-07, cumulative = -0.00044060905
ExecutionTime = 25.359014 s  ClockTime = 25 s

Time = 117s

smoothSolver:  Solving for Ux, Initial residual = 0.00094235557, Final residual = 3.3224927e-05, No Iterations 3
smoothSolver:  Solving for Uy, Initial residual = 0.0068665241, Final residual = 0.00023464313, No Iterations 3
smoothSolver:  Solving for Uz, Initial residual = 0.00071745443, Final residual = 2.5820129e-05, No Iterations 3
GAMG:  Solving for p, Initial residual = 0.014928179, Final residual = 8.0234493e-05, No Iterations 4
time step continuity errors : sum local = 1.8041392e-05, global = 1.4970031e-07, cumulative = -0.00044045935
ExecutionTime = 25.600135 s  ClockTime = 26 s

Time = 118s

smoothSolver:  Solving for Ux, Initial residual = 0.00093710474, Final residual = 3.3028199e-05, No Iterations 3
smoothSolver:  Solving for Uy, Initial residual = 0.0068136824, Final residual = 0.00023293475, No Iterations 3
smoothSolver:  Solving for Uz, Initial residual = 0.00071174445, Final residual = 2.5603848e-05, No Iterations 3
GAMG:  Solving for p, Initial residual = 0.01478473, Final residual = 0.00014513473, No Iterations 3
time step continuity errors : sum local = 3.2696475e-05, global = 2.0848348e-07, cumulative = -0.00044025086
ExecutionTime = 25.792178 s  ClockTime = 26 s

Time = 119s

smoothSolver:  Solving for Ux, Initial residual = 0.00093163117, Final residual = 3.2823641e-05, No Iterations 3
smoothSolver:  Solving for Uy, Initial residual = 0.0067610972, Final residual = 0.0002311982, No Iterations 3
smoothSolver:  Solving for Uz, Initial residual = 0.00070625423, Final residual = 2.5402802e-05, No Iterations 3
GAMG:  Solving for p, Initial residual = 0.01462566, Final residual = 7.9412465e-05, No Iterations 4
time step continuity errors : sum local = 1.7927197e-05, global = 1.2032305e-07, cumulative = -0.00044013054
ExecutionTime = 26.009866 s  ClockTime = 26 s

Time = 120s

smoothSolver:  Solving for Ux, Initial residual = 0.00092717734, Final residual = 3.2659968e-05, No Iterations 3
smoothSolver:  Solving for Uy, Initial residual = 0.0067323503, Final residual = 0.00023031048, No Iterations 3
smoothSolver:  Solving for Uz, Initial residual = 0.00070118748, Final residual = 2.5214805e-05, No Iterations 3
GAMG:  Solving for p, Initial residual = 0.014566586, Final residual = 7.6648062e-05, No Iterations 4
time step continuity errors : sum local = 1.7335741e-05, global = 1.1838689e-07, cumulative = -0.00044001215
ExecutionTime = 26.222951 s  ClockTime = 26 s

Time = 121s

smoothSolver:  Solving for Ux, Initial residual = 0.00092285345, Final residual = 3.2503002e-05, No Iterations 3
smoothSolver:  Solving for Uy, Initial residual = 0.006705695, Final residual = 0.00022951031, No Iterations 3
smoothSolver:  Solving for Uz, Initial residual = 0.00069631853, Final residual = 2.5034156e-05, No Iterations 3
GAMG:  Solving for p, Initial residual = 0.014491949, Final residual = 7.3689404e-05, No Iterations 4
time step continuity errors : sum local = 1.669932e-05, global = 1.2454103e-07, cumulative = -0.00043988761
ExecutionTime = 26.438991 s  ClockTime = 26 s

Time = 122s

smoothSolver:  Solving for Ux, Initial residual = 0.00091837024, Final residual = 3.233766e-05, No Iterations 3
smoothSolver:  Solving for Uy, Initial residual = 0.006676312, Final residual = 0.00022853842, No Iterations 3
smoothSolver:  Solving for Uz, Initial residual = 0.00069146373, Final residual = 2.485554e-05, No Iterations 3
GAMG:  Solving for p, Initial residual = 0.014411262, Final residual = 0.00014306188, No Iterations 3
time step continuity errors : sum local = 3.248674e-05, global = 2.1838986e-07, cumulative = -0.00043966922
ExecutionTime = 26.640869 s  ClockTime = 27 s

Time = 123s

smoothSolver:  Solving for Ux, Initial residual = 0.000913412, Final residual = 3.2145217e-05, No Iterations 3
smoothSolver:  Solving for Uy, Initial residual = 0.0066359647, Final residual = 0.00022723396, No Iterations 3
smoothSolver:  Solving for Uz, Initial residual = 0.00068649655, Final residual = 2.4675986e-05, No Iterations 3
GAMG:  Solving for p, Initial residual = 0.014266032, Final residual = 7.6111839e-05, No Iterations 4
time step continuity errors : sum local = 1.7320436e-05, global = 1.6003497e-07, cumulative = -0.00043950919
ExecutionTime = 26.85627 s  ClockTime = 27 s

Time = 124s

smoothSolver:  Solving for Ux, Initial residual = 0.00090935565, Final residual = 3.1980864e-05, No Iterations 3
smoothSolver:  Solving for Uy, Initial residual = 0.0066082004, Final residual = 0.00022637086, No Iterations 3
smoothSolver:  Solving for Uz, Initial residual = 0.00068175863, Final residual = 2.449697e-05, No Iterations 3
GAMG:  Solving for p, Initial residual = 0.014188005, Final residual = 7.452355e-05, No Iterations 4
time step continuity errors : sum local = 1.6993004e-05, global = 1.6818625e-07, cumulative = -0.000439341
ExecutionTime = 27.069565 s  ClockTime = 27 s

Time = 125s

smoothSolver:  Solving for Ux, Initial residual = 0.00090513061, Final residual = 3.1814848e-05, No Iterations 3
smoothSolver:  Solving for Uy, Initial residual = 0.0065792401, Final residual = 0.00022541682, No Iterations 3
smoothSolver:  Solving for Uz, Initial residual = 0.00067699031, Final residual = 2.431689e-05, No Iterations 3
GAMG:  Solving for p, Initial residual = 0.014157721, Final residual = 7.2293053e-05, No Iterations 4
time step continuity errors : sum local = 1.6517397e-05, global = 1.6335058e-07, cumulative = -0.00043917765
ExecutionTime = 27.284905 s  ClockTime = 27 s

Time = 126s

smoothSolver:  Solving for Ux, Initial residual = 0.00090078852, Final residual = 3.164443e-05, No Iterations 3
smoothSolver:  Solving for Uy, Initial residual = 0.0065490158, Final residual = 0.00022438484, No Iterations 3
smoothSolver:  Solving for Uz, Initial residual = 0.00067225969, Final residual = 2.4139497e-05, No Iterations 3
GAMG:  Solving for p, Initial residual = 0.014101618, Final residual = 0.00013905009, No Iterations 3
time step continuity errors : sum local = 3.1833565e-05, global = 2.366356e-07, cumulative = -0.00043894101
ExecutionTime = 27.487982 s  ClockTime = 27 s

Time = 127s

smoothSolver:  Solving for Ux, Initial residual = 0.00089585771, Final residual = 3.1457723e-05, No Iterations 3
smoothSolver:  Solving for Uy, Initial residual = 0.006508854, Final residual = 0.00022295885, No Iterations 3
smoothSolver:  Solving for Uz, Initial residual = 0.00066747312, Final residual = 2.3962418e-05, No Iterations 3
GAMG:  Solving for p, Initial residual = 0.014011289, Final residual = 7.7060442e-05, No Iterations 4
time step continuity errors : sum local = 1.7677009e-05, global = 1.3357639e-07, cumulative = -0.00043880744
ExecutionTime = 27.704818 s  ClockTime = 28 s

Time = 128s

smoothSolver:  Solving for Ux, Initial residual = 0.00089185809, Final residual = 3.1304461e-05, No Iterations 3
smoothSolver:  Solving for Uy, Initial residual = 0.0064796094, Final residual = 0.00022199524, No Iterations 3
smoothSolver:  Solving for Uz, Initial residual = 0.00066300487, Final residual = 2.3794478e-05, No Iterations 3
GAMG:  Solving for p, Initial residual = 0.013935109, Final residual = 7.6288269e-05, No Iterations 4
time step continuity errors : sum local = 1.7531147e-05, global = 1.1374649e-07, cumulative = -0.00043869369
ExecutionTime = 27.918911 s  ClockTime = 28 s

Time = 129s

smoothSolver:  Solving for Ux, Initial residual = 0.00088788137, Final residual = 3.1158354e-05, No Iterations 3
smoothSolver:  Solving for Uy, Initial residual = 0.0064477761, Final residual = 0.0002209223, No Iterations 3
smoothSolver:  Solving for Uz, Initial residual = 0.0006585714, Final residual = 2.3629289e-05, No Iterations 3
GAMG:  Solving for p, Initial residual = 0.013848928, Final residual = 7.3673958e-05, No Iterations 4
time step continuity errors : sum local = 1.6960984e-05, global = 9.2485535e-08, cumulative = -0.00043860121
ExecutionTime = 28.134782 s  ClockTime = 28 s

Time = 130s

smoothSolver:  Solving for Ux, Initial residual = 0.00088388889, Final residual = 3.1017616e-05, No Iterations 3
[...]
GAMG:  Solving for p, Initial residual = 1.3683833e-05, Final residual = 7.567365e-08, No Iterations 3
time step continuity errors : sum local = 2.1922444e-08, global = 1.1287303e-10, cumulative = -0.00047791119
ExecutionTime = 262.34147 s  ClockTime = 265 s

Time = 1270s

smoothSolver:  Solving for Ux, Initial residual = 8.8073636e-07, Final residual = 3.1940331e-08, No Iterations 3
smoothSolver:  Solving for Uy, Initial residual = 7.7662127e-06, Final residual = 2.8363399e-07, No Iterations 3
smoothSolver:  Solving for Uz, Initial residual = 4.1030968e-07, Final residual = 1.4731757e-08, No Iterations 3
GAMG:  Solving for p, Initial residual = 1.3547619e-05, Final residual = 7.4932203e-08, No Iterations 3
time step continuity errors : sum local = 2.1707645e-08, global = 1.3403533e-10, cumulative = -0.00047791105
ExecutionTime = 262.54483 s  ClockTime = 265 s

Time = 1271s

smoothSolver:  Solving for Ux, Initial residual = 8.726767e-07, Final residual = 3.1657072e-08, No Iterations 3
smoothSolver:  Solving for Uy, Initial residual = 7.6871293e-06, Final residual = 2.8084838e-07, No Iterations 3
smoothSolver:  Solving for Uz, Initial residual = 4.066097e-07, Final residual = 1.4588456e-08, No Iterations 3
GAMG:  Solving for p, Initial residual = 1.3413593e-05, Final residual = 7.4218846e-08, No Iterations 3
time step continuity errors : sum local = 2.1500984e-08, global = 1.4455898e-10, cumulative = -0.00047791091
ExecutionTime = 262.74866 s  ClockTime = 266 s

Time = 1272s

smoothSolver:  Solving for Ux, Initial residual = 8.6475162e-07, Final residual = 3.1378488e-08, No Iterations 3
smoothSolver:  Solving for Uy, Initial residual = 7.608929e-06, Final residual = 2.781277e-07, No Iterations 3
smoothSolver:  Solving for Uz, Initial residual = 4.0294273e-07, Final residual = 1.4448506e-08, No Iterations 3
GAMG:  Solving for p, Initial residual = 1.3280005e-05, Final residual = 7.3542481e-08, No Iterations 3
time step continuity errors : sum local = 2.130504e-08, global = 1.400672e-10, cumulative = -0.00047791077
ExecutionTime = 262.9521 s  ClockTime = 266 s

Time = 1273s

smoothSolver:  Solving for Ux, Initial residual = 8.569821e-07, Final residual = 3.1101619e-08, No Iterations 3
smoothSolver:  Solving for Uy, Initial residual = 7.5321996e-06, Final residual = 2.7547694e-07, No Iterations 3
smoothSolver:  Solving for Uz, Initial residual = 3.992792e-07, Final residual = 1.4308846e-08, No Iterations 3
GAMG:  Solving for p, Initial residual = 1.3147475e-05, Final residual = 7.2760667e-08, No Iterations 3
time step continuity errors : sum local = 2.1078548e-08, global = 1.4166056e-10, cumulative = -0.00047791063
ExecutionTime = 263.15577 s  ClockTime = 266 s

Time = 1274s

smoothSolver:  Solving for Ux, Initial residual = 8.493833e-07, Final residual = 3.0825064e-08, No Iterations 3
smoothSolver:  Solving for Uy, Initial residual = 7.4562668e-06, Final residual = 2.7284708e-07, No Iterations 3
smoothSolver:  Solving for Uz, Initial residual = 3.9564014e-07, Final residual = 1.417179e-08, No Iterations 3
GAMG:  Solving for p, Initial residual = 1.301421e-05, Final residual = 7.2103695e-08, No Iterations 3
time step continuity errors : sum local = 2.0888222e-08, global = 1.6108278e-10, cumulative = -0.00047791046
ExecutionTime = 263.36103 s  ClockTime = 266 s

Time = 1275s

smoothSolver:  Solving for Ux, Initial residual = 8.4191774e-07, Final residual = 3.05461e-08, No Iterations 3
smoothSolver:  Solving for Uy, Initial residual = 7.3807589e-06, Final residual = 2.7027352e-07, No Iterations 3
smoothSolver:  Solving for Uz, Initial residual = 3.9202835e-07, Final residual = 1.4037641e-08, No Iterations 3
GAMG:  Solving for p, Initial residual = 1.2881856e-05, Final residual = 7.1373478e-08, No Iterations 3
time step continuity errors : sum local = 2.0676677e-08, global = 1.4660638e-10, cumulative = -0.00047791032
ExecutionTime = 263.56496 s  ClockTime = 266 s

Time = 1276s

smoothSolver:  Solving for Ux, Initial residual = 8.3441777e-07, Final residual = 3.0269209e-08, No Iterations 3
smoothSolver:  Solving for Uy, Initial residual = 7.3064125e-06, Final residual = 2.6771585e-07, No Iterations 3
smoothSolver:  Solving for Uz, Initial residual = 3.8847634e-07, Final residual = 1.3905237e-08, No Iterations 3
GAMG:  Solving for p, Initial residual = 1.2751219e-05, Final residual = 7.0756112e-08, No Iterations 3
time step continuity errors : sum local = 2.0497825e-08, global = 1.4664445e-10, cumulative = -0.00047791017
ExecutionTime = 263.76821 s  ClockTime = 267 s

Time = 1277s

smoothSolver:  Solving for Ux, Initial residual = 8.2690746e-07, Final residual = 2.9994739e-08, No Iterations 3
smoothSolver:  Solving for Uy, Initial residual = 7.2336317e-06, Final residual = 2.6516775e-07, No Iterations 3
smoothSolver:  Solving for Uz, Initial residual = 3.8498316e-07, Final residual = 1.3773401e-08, No Iterations 3
GAMG:  Solving for p, Initial residual = 1.262232e-05, Final residual = 7.0064327e-08, No Iterations 3
time step continuity errors : sum local = 2.0297414e-08, global = 1.6126295e-10, cumulative = -0.00047791001
ExecutionTime = 263.97239 s  ClockTime = 267 s

Time = 1278s

smoothSolver:  Solving for Ux, Initial residual = 8.194555e-07, Final residual = 2.9719867e-08, No Iterations 3
smoothSolver:  Solving for Uy, Initial residual = 7.161477e-06, Final residual = 2.6261694e-07, No Iterations 3
smoothSolver:  Solving for Uz, Initial residual = 3.8150394e-07, Final residual = 1.3644733e-08, No Iterations 3
GAMG:  Solving for p, Initial residual = 1.2495522e-05, Final residual = 6.9408264e-08, No Iterations 3
time step continuity errors : sum local = 2.0107352e-08, global = 1.4606754e-10, cumulative = -0.00047790986
ExecutionTime = 264.17626 s  ClockTime = 267 s

Time = 1279s

smoothSolver:  Solving for Ux, Initial residual = 8.1196206e-07, Final residual = 2.9445702e-08, No Iterations 3
smoothSolver:  Solving for Uy, Initial residual = 7.090007e-06, Final residual = 2.6010525e-07, No Iterations 3
smoothSolver:  Solving for Uz, Initial residual = 3.7806567e-07, Final residual = 1.3518957e-08, No Iterations 3
GAMG:  Solving for p, Initial residual = 1.2369842e-05, Final residual = 6.8731843e-08, No Iterations 3
time step continuity errors : sum local = 1.9911392e-08, global = 1.4415884e-10, cumulative = -0.00047790972
ExecutionTime = 264.38114 s  ClockTime = 267 s

Time = 1280s

smoothSolver:  Solving for Ux, Initial residual = 8.0441677e-07, Final residual = 2.9172814e-08, No Iterations 3
smoothSolver:  Solving for Uy, Initial residual = 7.0192061e-06, Final residual = 2.5759651e-07, No Iterations 3
smoothSolver:  Solving for Uz, Initial residual = 3.7465198e-07, Final residual = 1.3394933e-08, No Iterations 3
GAMG:  Solving for p, Initial residual = 1.2246673e-05, Final residual = 6.805084e-08, No Iterations 3
time step continuity errors : sum local = 1.9714106e-08, global = 1.4071556e-10, cumulative = -0.00047790958
ExecutionTime = 264.58481 s  ClockTime = 267 s

Time = 1281s

smoothSolver:  Solving for Ux, Initial residual = 7.9693271e-07, Final residual = 2.8901581e-08, No Iterations 3
smoothSolver:  Solving for Uy, Initial residual = 6.9497216e-06, Final residual = 2.5508299e-07, No Iterations 3
smoothSolver:  Solving for Uz, Initial residual = 3.7127172e-07, Final residual = 1.3273725e-08, No Iterations 3
GAMG:  Solving for p, Initial residual = 1.2124364e-05, Final residual = 6.7379516e-08, No Iterations 3
time step continuity errors : sum local = 1.9519623e-08, global = 1.3636508e-10, cumulative = -0.00047790944
ExecutionTime = 264.78804 s  ClockTime = 268 s

Time = 1282s

smoothSolver:  Solving for Ux, Initial residual = 7.8956523e-07, Final residual = 2.8631476e-08, No Iterations 3
smoothSolver:  Solving for Uy, Initial residual = 6.8817777e-06, Final residual = 2.5256924e-07, No Iterations 3
smoothSolver:  Solving for Uz, Initial residual = 3.6790095e-07, Final residual = 1.3155219e-08, No Iterations 3
GAMG:  Solving for p, Initial residual = 1.2004556e-05, Final residual = 6.6727828e-08, No Iterations 3
time step continuity errors : sum local = 1.9330828e-08, global = 1.3170268e-10, cumulative = -0.00047790931
ExecutionTime = 264.99067 s  ClockTime = 268 s

Time = 1283s

smoothSolver:  Solving for Ux, Initial residual = 7.8231696e-07, Final residual = 2.8361937e-08, No Iterations 3
smoothSolver:  Solving for Uy, Initial residual = 6.8148838e-06, Final residual = 2.5007639e-07, No Iterations 3
smoothSolver:  Solving for Uz, Initial residual = 3.6455084e-07, Final residual = 1.3037177e-08, No Iterations 3
GAMG:  Solving for p, Initial residual = 1.1887389e-05, Final residual = 6.6170738e-08, No Iterations 3
time step continuity errors : sum local = 1.9169439e-08, global = 1.4514426e-10, cumulative = -0.00047790917
ExecutionTime = 265.19796 s  ClockTime = 268 s

Time = 1284s

smoothSolver:  Solving for Ux, Initial residual = 7.7508434e-07, Final residual = 2.8097034e-08, No Iterations 3
smoothSolver:  Solving for Uy, Initial residual = 6.7483838e-06, Final residual = 2.4758926e-07, No Iterations 3
smoothSolver:  Solving for Uz, Initial residual = 3.6123221e-07, Final residual = 1.2919525e-08, No Iterations 3
GAMG:  Solving for p, Initial residual = 1.1772173e-05, Final residual = 6.5466227e-08, No Iterations 3
time step continuity errors : sum local = 1.8965343e-08, global = 1.3237906e-10, cumulative = -0.00047790903
ExecutionTime = 265.40104 s  ClockTime = 268 s

Time = 1285s

smoothSolver:  Solving for Ux, Initial residual = 7.6791804e-07, Final residual = 2.783308e-08, No Iterations 3
smoothSolver:  Solving for Uy, Initial residual = 6.6823142e-06, Final residual = 2.4514846e-07, No Iterations 3
smoothSolver:  Solving for Uz, Initial residual = 3.5796211e-07, Final residual = 1.2804968e-08, No Iterations 3
GAMG:  Solving for p, Initial residual = 1.1658106e-05, Final residual = 6.482011e-08, No Iterations 3
time step continuity errors : sum local = 1.8778163e-08, global = 1.3328293e-10, cumulative = -0.0004779089
ExecutionTime = 265.60633 s  ClockTime = 268 s

Time = 1286s

smoothSolver:  Solving for Ux, Initial residual = 7.6083254e-07, Final residual = 2.757488e-08, No Iterations 3
smoothSolver:  Solving for Uy, Initial residual = 6.6164327e-06, Final residual = 2.4274362e-07, No Iterations 3
smoothSolver:  Solving for Uz, Initial residual = 3.5474349e-07, Final residual = 1.2691678e-08, No Iterations 3
GAMG:  Solving for p, Initial residual = 1.154367e-05, Final residual = 6.4229201e-08, No Iterations 3
time step continuity errors : sum local = 1.8606976e-08, global = 1.513065e-10, cumulative = -0.00047790875
ExecutionTime = 265.80907 s  ClockTime = 269 s

Time = 1287s

smoothSolver:  Solving for Ux, Initial residual = 7.5378871e-07, Final residual = 2.7318266e-08, No Iterations 3
smoothSolver:  Solving for Uy, Initial residual = 6.55159e-06, Final residual = 2.4035244e-07, No Iterations 3
smoothSolver:  Solving for Uz, Initial residual = 3.5159415e-07, Final residual = 1.2580974e-08, No Iterations 3
GAMG:  Solving for p, Initial residual = 1.1429557e-05, Final residual = 6.3510899e-08, No Iterations 3
time step continuity errors : sum local = 1.8398885e-08, global = 1.4147573e-10, cumulative = -0.00047790861
ExecutionTime = 266.01496 s  ClockTime = 269 s

Time = 1288s

smoothSolver:  Solving for Ux, Initial residual = 7.4671934e-07, Final residual = 2.7064188e-08, No Iterations 3
smoothSolver:  Solving for Uy, Initial residual = 6.4877511e-06, Final residual = 2.380034e-07, No Iterations 3
smoothSolver:  Solving for Uz, Initial residual = 3.4847214e-07, Final residual = 1.2471847e-08, No Iterations 3
GAMG:  Solving for p, Initial residual = 1.1317211e-05, Final residual = 6.28744e-08, No Iterations 3
time step continuity errors : sum local = 1.8214491e-08, global = 1.4370958e-10, cumulative = -0.00047790846
ExecutionTime = 266.21859 s  ClockTime = 269 s

Time = 1289s

smoothSolver:  Solving for Ux, Initial residual = 7.397021e-07, Final residual = 2.6814095e-08, No Iterations 3
smoothSolver:  Solving for Uy, Initial residual = 6.425201e-06, Final residual = 2.3567233e-07, No Iterations 3
smoothSolver:  Solving for Uz, Initial residual = 3.4537339e-07, Final residual = 1.2363701e-08, No Iterations 3
GAMG:  Solving for p, Initial residual = 1.120622e-05, Final residual = 6.2209403e-08, No Iterations 3
time step continuity errors : sum local = 1.8021842e-08, global = 1.4423893e-10, cumulative = -0.00047790832
ExecutionTime = 266.4239 s  ClockTime = 269 s

Time = 1290s

smoothSolver:  Solving for Ux, Initial residual = 7.3275657e-07, Final residual = 2.6567258e-08, No Iterations 3
smoothSolver:  Solving for Uy, Initial residual = 6.363624e-06, Final residual = 2.333573e-07, No Iterations 3
smoothSolver:  Solving for Uz, Initial residual = 3.4232953e-07, Final residual = 1.2257115e-08, No Iterations 3
GAMG:  Solving for p, Initial residual = 1.109604e-05, Final residual = 6.1583274e-08, No Iterations 3
time step continuity errors : sum local = 1.7840453e-08, global = 1.4235548e-10, cumulative = -0.00047790818
ExecutionTime = 266.62788 s  ClockTime = 270 s

Time = 1291s

smoothSolver:  Solving for Ux, Initial residual = 7.2587435e-07, Final residual = 2.6317554e-08, No Iterations 3
smoothSolver:  Solving for Uy, Initial residual = 6.3029652e-06, Final residual = 2.3109106e-07, No Iterations 3
smoothSolver:  Solving for Uz, Initial residual = 3.3933745e-07, Final residual = 1.2151426e-08, No Iterations 3
GAMG:  Solving for p, Initial residual = 1.0986223e-05, Final residual = 6.0959913e-08, No Iterations 3
time step continuity errors : sum local = 1.7659866e-08, global = 1.3880093e-10, cumulative = -0.00047790804
ExecutionTime = 266.83146 s  ClockTime = 270 s

Time = 1292s

smoothSolver:  Solving for Ux, Initial residual = 7.1907589e-07, Final residual = 2.6071364e-08, No Iterations 3
smoothSolver:  Solving for Uy, Initial residual = 6.2429337e-06, Final residual = 2.2886717e-07, No Iterations 3
smoothSolver:  Solving for Uz, Initial residual = 3.3636911e-07, Final residual = 1.2046959e-08, No Iterations 3
GAMG:  Solving for p, Initial residual = 1.0878123e-05, Final residual = 6.0332995e-08, No Iterations 3
time step continuity errors : sum local = 1.7478248e-08, global = 1.3411093e-10, cumulative = -0.0004779079
ExecutionTime = 267.03555 s  ClockTime = 270 s

Time = 1293s

smoothSolver:  Solving for Ux, Initial residual = 7.1240294e-07, Final residual = 2.5825544e-08, No Iterations 3
smoothSolver:  Solving for Uy, Initial residual = 6.1833211e-06, Final residual = 2.2673278e-07, No Iterations 3
smoothSolver:  Solving for Uz, Initial residual = 3.3345625e-07, Final residual = 1.1944938e-08, No Iterations 3
GAMG:  Solving for p, Initial residual = 1.0772307e-05, Final residual = 5.96913e-08, No Iterations 3
time step continuity errors : sum local = 1.729235e-08, global = 1.289622e-10, cumulative = -0.00047790777
ExecutionTime = 267.24124 s  ClockTime = 270 s

Time = 1294s

smoothSolver:  Solving for Ux, Initial residual = 7.0583461e-07, Final residual = 2.5583326e-08, No Iterations 3
smoothSolver:  Solving for Uy, Initial residual = 6.1247454e-06, Final residual = 2.2465015e-07, No Iterations 3
smoothSolver:  Solving for Uz, Initial residual = 3.3059086e-07, Final residual = 1.1843692e-08, No Iterations 3
GAMG:  Solving for p, Initial residual = 1.0667805e-05, Final residual = 5.9035826e-08, No Iterations 3
time step continuity errors : sum local = 1.710246e-08, global = 1.2391151e-10, cumulative = -0.00047790765
ExecutionTime = 267.44576 s  ClockTime = 270 s

Time = 1295s

smoothSolver:  Solving for Ux, Initial residual = 6.9937656e-07, Final residual = 2.5339028e-08, No Iterations 3
smoothSolver:  Solving for Uy, Initial residual = 6.0668417e-06, Final residual = 2.2258832e-07, No Iterations 3
smoothSolver:  Solving for Uz, Initial residual = 3.277756e-07, Final residual = 1.1741637e-08, No Iterations 3
GAMG:  Solving for p, Initial residual = 1.0563897e-05, Final residual = 5.8395714e-08, No Iterations 3
time step continuity errors : sum local = 1.691702e-08, global = 1.3499368e-10, cumulative = -0.00047790752
ExecutionTime = 267.65052 s  ClockTime = 271 s

Time = 1296s

smoothSolver:  Solving for Ux, Initial residual = 6.9301653e-07, Final residual = 2.509462e-08, No Iterations 3
smoothSolver:  Solving for Uy, Initial residual = 6.0096681e-06, Final residual = 2.2057087e-07, No Iterations 3
smoothSolver:  Solving for Uz, Initial residual = 3.2499696e-07, Final residual = 1.1637394e-08, No Iterations 3
GAMG:  Solving for p, Initial residual = 1.0460645e-05, Final residual = 5.7714222e-08, No Iterations 3
time step continuity errors : sum local = 1.6719593e-08, global = 1.2321467e-10, cumulative = -0.00047790739
ExecutionTime = 267.85772 s  ClockTime = 271 s

Time = 1297s

smoothSolver:  Solving for Ux, Initial residual = 6.8668895e-07, Final residual = 2.4851993e-08, No Iterations 3
smoothSolver:  Solving for Uy, Initial residual = 5.953715e-06, Final residual = 2.1855643e-07, No Iterations 3
smoothSolver:  Solving for Uz, Initial residual = 3.2225266e-07, Final residual = 1.1531408e-08, No Iterations 3
GAMG:  Solving for p, Initial residual = 1.0358488e-05, Final residual = 5.7054487e-08, No Iterations 3
time step continuity errors : sum local = 1.6528469e-08, global = 1.2423037e-10, cumulative = -0.00047790727
ExecutionTime = 268.07629 s  ClockTime = 271 s

Time = 1298s

smoothSolver:  Solving for Ux, Initial residual = 6.8051432e-07, Final residual = 2.4613256e-08, No Iterations 3
smoothSolver:  Solving for Uy, Initial residual = 5.8980658e-06, Final residual = 2.1652992e-07, No Iterations 3
smoothSolver:  Solving for Uz, Initial residual = 3.1954816e-07, Final residual = 1.1426912e-08, No Iterations 3
GAMG:  Solving for p, Initial residual = 1.0256117e-05, Final residual = 5.641077e-08, No Iterations 3
time step continuity errors : sum local = 1.6341985e-08, global = 1.2535942e-10, cumulative = -0.00047790714
ExecutionTime = 268.28186 s  ClockTime = 271 s

Time = 1299s

smoothSolver:  Solving for Ux, Initial residual = 6.7444487e-07, Final residual = 2.4381566e-08, No Iterations 3
smoothSolver:  Solving for Uy, Initial residual = 5.8431708e-06, Final residual = 2.1454366e-07, No Iterations 3
smoothSolver:  Solving for Uz, Initial residual = 3.1687251e-07, Final residual = 1.1324833e-08, No Iterations 3
GAMG:  Solving for p, Initial residual = 1.0155941e-05, Final residual = 5.5799051e-08, No Iterations 3
time step continuity errors : sum local = 1.6164771e-08, global = 1.3666228e-10, cumulative = -0.00047790701
ExecutionTime = 268.4935 s  ClockTime = 271 s

Time = 1300s

smoothSolver:  Solving for Ux, Initial residual = 6.6848414e-07, Final residual = 2.4154843e-08, No Iterations 3
smoothSolver:  Solving for Uy, Initial residual = 5.7894134e-06, Final residual = 2.1261012e-07, No Iterations 3
smoothSolver:  Solving for Uz, Initial residual = 3.1423252e-07, Final residual = 1.1226443e-08, No Iterations 3
GAMG:  Solving for p, Initial residual = 1.0056503e-05, Final residual = 5.518299e-08, No Iterations 3
time step continuity errors : sum local = 1.5986299e-08, global = 1.3306102e-10, cumulative = -0.00047790687
ExecutionTime = 268.69723 s  ClockTime = 272 s

Time = 1301s

smoothSolver:  Solving for Ux, Initial residual = 6.6259197e-07, Final residual = 2.3931984e-08, No Iterations 3
smoothSolver:  Solving for Uy, Initial residual = 5.7365848e-06, Final residual = 2.1070343e-07, No Iterations 3
smoothSolver:  Solving for Uz, Initial residual = 3.1165033e-07, Final residual = 1.1131803e-08, No Iterations 3
GAMG:  Solving for p, Initial residual = 9.957272e-06, Final residual = 5.4604461e-08, No Iterations 3
time step continuity errors : sum local = 1.58187e-08, global = 1.3714273e-10, cumulative = -0.00047790674
ExecutionTime = 268.90379 s  ClockTime = 272 s


SIMPLE solution converged in 1301 iterations

End

Finalising parallel run
