/*---------------------------------------------------------------------------*\
  =========                 |
  \\      /  F ield         | OpenFOAM: The Open Source CFD Toolbox
   \\    /   O peration     | Website:  https://openfoam.org
    \\  /    A nd           | Version:  11
     \\/     M anipulation  |
\*---------------------------------------------------------------------------*/
Build  : 11-e1fc8c682ae6
Exec   : foamRun -solver incompressibleFluid -parallel
Date   : Feb 08 2026
Time   : 11:48:10
Host   : "ip-172-31-18-192"
PID    : 126539
I/O    : uncollated
Case   : /home/ubuntu/cases/bifurcation_angle45_500_ascii/Re200
nProcs : 16
Slaves : 
15
(
"ip-172-31-18-192.126540"
"ip-172-31-18-192.126541"
"ip-172-31-18-192.126542"
"ip-172-31-18-192.126543"
"ip-172-31-18-192.126544"
"ip-172-31-18-192.126545"
"ip-172-31-18-192.126546"
"ip-172-31-18-192.126547"
"ip-172-31-18-192.126548"
"ip-172-31-18-192.126549"
"ip-172-31-18-192.126550"
"ip-172-31-18-192.126551"
"ip-172-31-18-192.126552"
"ip-172-31-18-192.126553"
"ip-172-31-18-192.126554"
)

Pstream initialised with:
    floatTransfer      : false
    nProcsSimpleSum    : 0
    commsType          : nonBlocking
    polling iterations : 0
sigFpe : Enabling floating point exception trapping (FOAM_SIGFPE).
fileModificationChecking : Monitoring run-time modified files using timeStampMaster (fileModificationSkew 10)
allowSystemOperations : Allowing user-supplied system call operations

// * * * * * * * * * * * * * * * * * * * * * * * * * * * * * * * * * * * * * //
Create time

Create mesh for time = 0

Selecting solver incompressibleFluid
Selecting viscosity model Newtonian
Selecting turbulence model type laminar
Selecting laminar stress model Stokes
No MRF models present


SIMPLE: Convergence criteria found
        p: tolerance 1e-05
        U: tolerance 1e-05


SIMPLE: Operating solver in steady-state mode with 1 outer corrector
SIMPLE: Operating solver in SIMPLE mode



Starting time loop

wallShearStress wallShearStress:
    processing wall patches: 
        wall-fluid_domain

Time = 1s

smoothSolver:  Solving for Ux, Initial residual = 1, Final residual = 0.045326578, No Iterations 1
smoothSolver:  Solving for Uy, Initial residual = 1, Final residual = 0.041481501, No Iterations 1
smoothSolver:  Solving for Uz, Initial residual = 1, Final residual = 0.020899135, No Iterations 1
GAMG:  Solving for p, Initial residual = 1, Final residual = 0.0073866869, No Iterations 10
time step continuity errors : sum local = 0.00015116344, global = -2.1588126e-06, cumulative = -2.1588126e-06
ExecutionTime = 0.525831 s  ClockTime = 1 s

Time = 2s

smoothSolver:  Solving for Ux, Initial residual = 0.26660223, Final residual = 0.016236601, No Iterations 2
smoothSolver:  Solving for Uy, Initial residual = 0.32948177, Final residual = 0.015257015, No Iterations 2
smoothSolver:  Solving for Uz, Initial residual = 0.29265921, Final residual = 0.02379536, No Iterations 2
GAMG:  Solving for p, Initial residual = 0.27470332, Final residual = 0.0020637304, No Iterations 6
time step continuity errors : sum local = 0.0040095982, global = -0.000180835, cumulative = -0.00018299381
ExecutionTime = 0.671031 s  ClockTime = 1 s

Time = 3s

smoothSolver:  Solving for Ux, Initial residual = 0.21404003, Final residual = 0.020757351, No Iterations 2
smoothSolver:  Solving for Uy, Initial residual = 0.13340291, Final residual = 0.0080099982, No Iterations 2
smoothSolver:  Solving for Uz, Initial residual = 0.57121376, Final residual = 0.020413902, No Iterations 3
GAMG:  Solving for p, Initial residual = 0.12414439, Final residual = 0.00070688897, No Iterations 3
time step continuity errors : sum local = 0.0062264358, global = 0.00011569273, cumulative = -6.7301077e-05
ExecutionTime = 0.811568 s  ClockTime = 1 s

Time = 4s

smoothSolver:  Solving for Ux, Initial residual = 0.1402697, Final residual = 0.0045805277, No Iterations 3
smoothSolver:  Solving for Uy, Initial residual = 0.070936207, Final residual = 0.0043034792, No Iterations 2
smoothSolver:  Solving for Uz, Initial residual = 0.40682815, Final residual = 0.014559234, No Iterations 3
GAMG:  Solving for p, Initial residual = 0.086385304, Final residual = 0.00075441173, No Iterations 5
time step continuity errors : sum local = 0.0066195104, global = -4.1526995e-05, cumulative = -0.00010882807
ExecutionTime = 0.948521 s  ClockTime = 1 s

Time = 5s

smoothSolver:  Solving for Ux, Initial residual = 0.089701963, Final residual = 0.0082180818, No Iterations 2
smoothSolver:  Solving for Uy, Initial residual = 0.18385839, Final residual = 0.012458454, No Iterations 2
smoothSolver:  Solving for Uz, Initial residual = 0.16397678, Final residual = 0.0058834885, No Iterations 3
GAMG:  Solving for p, Initial residual = 0.07393148, Final residual = 0.00067453169, No Iterations 6
time step continuity errors : sum local = 0.0029462245, global = 0.0001842701, cumulative = 7.5442033e-05
ExecutionTime = 1.093592 s  ClockTime = 1 s

Time = 6s

smoothSolver:  Solving for Ux, Initial residual = 0.10112997, Final residual = 0.0078535034, No Iterations 2
smoothSolver:  Solving for Uy, Initial residual = 0.40242149, Final residual = 0.026577626, No Iterations 2
smoothSolver:  Solving for Uz, Initial residual = 0.0833925, Final residual = 0.0029263951, No Iterations 3
GAMG:  Solving for p, Initial residual = 0.38240198, Final residual = 0.0016962453, No Iterations 5
time step continuity errors : sum local = 0.0040407911, global = -0.00012870358, cumulative = -5.3261549e-05
ExecutionTime = 1.230321 s  ClockTime = 2 s

Time = 7s

smoothSolver:  Solving for Ux, Initial residual = 0.13847053, Final residual = 0.012500989, No Iterations 2
smoothSolver:  Solving for Uy, Initial residual = 0.2530395, Final residual = 0.016145655, No Iterations 2
smoothSolver:  Solving for Uz, Initial residual = 0.26521994, Final residual = 0.0094884585, No Iterations 3
GAMG:  Solving for p, Initial residual = 0.21904383, Final residual = 0.0021515914, No Iterations 3
time step continuity errors : sum local = 0.010203993, global = -0.00021780533, cumulative = -0.00027106688
ExecutionTime = 1.352003 s  ClockTime = 2 s

Time = 8s

smoothSolver:  Solving for Ux, Initial residual = 0.11468088, Final residual = 0.011177403, No Iterations 2
smoothSolver:  Solving for Uy, Initial residual = 0.13508848, Final residual = 0.0090953048, No Iterations 2
smoothSolver:  Solving for Uz, Initial residual = 0.28058774, Final residual = 0.01004295, No Iterations 3
GAMG:  Solving for p, Initial residual = 0.16963434, Final residual = 0.00090565076, No Iterations 5
time step continuity errors : sum local = 0.0036746418, global = 3.7836129e-05, cumulative = -0.00023323075
ExecutionTime = 1.487948 s  ClockTime = 2 s

Time = 9s

smoothSolver:  Solving for Ux, Initial residual = 0.078946886, Final residual = 0.0071131604, No Iterations 2
smoothSolver:  Solving for Uy, Initial residual = 0.25225106, Final residual = 0.019626719, No Iterations 2
smoothSolver:  Solving for Uz, Initial residual = 0.093829779, Final residual = 0.0033137144, No Iterations 3
GAMG:  Solving for p, Initial residual = 0.1798476, Final residual = 0.00087282319, No Iterations 6
time step continuity errors : sum local = 0.0013435882, global = -6.4508783e-05, cumulative = -0.00029773954
ExecutionTime = 1.630926 s  ClockTime = 2 s

Time = 10s

smoothSolver:  Solving for Ux, Initial residual = 0.085871308, Final residual = 0.0072403954, No Iterations 2
smoothSolver:  Solving for Uy, Initial residual = 0.39851067, Final residual = 0.028681233, No Iterations 2
smoothSolver:  Solving for Uz, Initial residual = 0.086995394, Final residual = 0.0031155816, No Iterations 3
GAMG:  Solving for p, Initial residual = 0.26142804, Final residual = 0.0023732433, No Iterations 4
time step continuity errors : sum local = 0.0036718754, global = -7.4615092e-05, cumulative = -0.00037235463
ExecutionTime = 1.759264 s  ClockTime = 2 s

Time = 11s

smoothSolver:  Solving for Ux, Initial residual = 0.079404553, Final residual = 0.0073284379, No Iterations 2
smoothSolver:  Solving for Uy, Initial residual = 0.23269367, Final residual = 0.015601651, No Iterations 2
smoothSolver:  Solving for Uz, Initial residual = 0.13234568, Final residual = 0.0047528896, No Iterations 3
GAMG:  Solving for p, Initial residual = 0.18447227, Final residual = 0.0012414317, No Iterations 4
time step continuity errors : sum local = 0.0029100716, global = 4.8248947e-06, cumulative = -0.00036752973
ExecutionTime = 1.888805 s  ClockTime = 2 s

Time = 12s

smoothSolver:  Solving for Ux, Initial residual = 0.050612292, Final residual = 0.0050534932, No Iterations 2
smoothSolver:  Solving for Uy, Initial residual = 0.14813895, Final residual = 0.011573101, No Iterations 2
smoothSolver:  Solving for Uz, Initial residual = 0.090279715, Final residual = 0.0032447437, No Iterations 3
GAMG:  Solving for p, Initial residual = 0.14520211, Final residual = 0.0010468219, No Iterations 5
time step continuity errors : sum local = 0.0018336857, global = -2.2917585e-05, cumulative = -0.00039044732
ExecutionTime = 2.026646 s  ClockTime = 2 s

Time = 13s

smoothSolver:  Solving for Ux, Initial residual = 0.034661478, Final residual = 0.0030738172, No Iterations 2
smoothSolver:  Solving for Uy, Initial residual = 0.30673118, Final residual = 0.025323005, No Iterations 2
smoothSolver:  Solving for Uz, Initial residual = 0.019718857, Final residual = 0.00063747314, No Iterations 3
GAMG:  Solving for p, Initial residual = 0.24992768, Final residual = 0.0010521258, No Iterations 6
time step continuity errors : sum local = 0.00057277814, global = 2.8822799e-05, cumulative = -0.00036162452
ExecutionTime = 2.171577 s  ClockTime = 3 s

Time = 14s

smoothSolver:  Solving for Ux, Initial residual = 0.039719555, Final residual = 0.0034752111, No Iterations 2
smoothSolver:  Solving for Uy, Initial residual = 0.3313307, Final residual = 0.025285924, No Iterations 2
smoothSolver:  Solving for Uz, Initial residual = 0.045994024, Final residual = 0.0016375159, No Iterations 3
GAMG:  Solving for p, Initial residual = 0.25117899, Final residual = 0.0017351335, No Iterations 4
time step continuity errors : sum local = 0.0014969405, global = 1.6018862e-05, cumulative = -0.00034560566
ExecutionTime = 2.301968 s  ClockTime = 3 s

Time = 15s

smoothSolver:  Solving for Ux, Initial residual = 0.036982332, Final residual = 0.0034563406, No Iterations 2
smoothSolver:  Solving for Uy, Initial residual = 0.18222567, Final residual = 0.012924493, No Iterations 2
smoothSolver:  Solving for Uz, Initial residual = 0.063890057, Final residual = 0.002280253, No Iterations 3
GAMG:  Solving for p, Initial residual = 0.18632281, Final residual = 0.001524179, No Iterations 4
time step continuity errors : sum local = 0.0016407264, global = -1.3082192e-05, cumulative = -0.00035868785
ExecutionTime = 2.430666 s  ClockTime = 3 s

Time = 16s

smoothSolver:  Solving for Ux, Initial residual = 0.025866306, Final residual = 0.0025768259, No Iterations 2
smoothSolver:  Solving for Uy, Initial residual = 0.14614269, Final residual = 0.012457166, No Iterations 2
smoothSolver:  Solving for Uz, Initial residual = 0.039975161, Final residual = 0.0014211557, No Iterations 3
GAMG:  Solving for p, Initial residual = 0.15005399, Final residual = 0.0012549746, No Iterations 5
time step continuity errors : sum local = 0.00088065744, global = 1.0835519e-05, cumulative = -0.00034785233
ExecutionTime = 2.566598 s  ClockTime = 3 s

Time = 17s

smoothSolver:  Solving for Ux, Initial residual = 0.019575171, Final residual = 0.0016818222, No Iterations 2
smoothSolver:  Solving for Uy, Initial residual = 0.27408651, Final residual = 0.023093852, No Iterations 2
smoothSolver:  Solving for Uz, Initial residual = 0.0085176044, Final residual = 0.00078276394, No Iterations 2
GAMG:  Solving for p, Initial residual = 0.43571904, Final residual = 0.0036317335, No Iterations 5
time step continuity errors : sum local = 0.0006081332, global = 6.9771506e-06, cumulative = -0.00034087518
ExecutionTime = 2.701746 s  ClockTime = 3 s

Time = 18s

smoothSolver:  Solving for Ux, Initial residual = 0.021515036, Final residual = 0.0019589073, No Iterations 2
smoothSolver:  Solving for Uy, Initial residual = 0.24216588, Final residual = 0.018945041, No Iterations 2
smoothSolver:  Solving for Uz, Initial residual = 0.02684077, Final residual = 0.00097175248, No Iterations 3
GAMG:  Solving for p, Initial residual = 0.19648853, Final residual = 0.0011197729, No Iterations 4
time step continuity errors : sum local = 0.0006027792, global = -8.5461196e-06, cumulative = -0.0003494213
ExecutionTime = 2.830922 s  ClockTime = 3 s

Time = 19s

smoothSolver:  Solving for Ux, Initial residual = 0.017179709, Final residual = 0.0016681279, No Iterations 2
smoothSolver:  Solving for Uy, Initial residual = 0.13454163, Final residual = 0.010223847, No Iterations 2
smoothSolver:  Solving for Uz, Initial residual = 0.028494303, Final residual = 0.0010314412, No Iterations 3
GAMG:  Solving for p, Initial residual = 0.1525785, Final residual = 0.00063918421, No Iterations 5
time step continuity errors : sum local = 0.0003647869, global = -2.5557604e-06, cumulative = -0.00035197706
ExecutionTime = 2.967136 s  ClockTime = 3 s

Time = 20s

smoothSolver:  Solving for Ux, Initial residual = 0.012333664, Final residual = 0.00039693515, No Iterations 3
smoothSolver:  Solving for Uy, Initial residual = 0.13197466, Final residual = 0.011890787, No Iterations 2
smoothSolver:  Solving for Uz, Initial residual = 0.014408641, Final residual = 0.0005212921, No Iterations 3
GAMG:  Solving for p, Initial residual = 0.1159518, Final residual = 0.0011269151, No Iterations 5
time step continuity errors : sum local = 0.00040575995, global = -6.603379e-06, cumulative = -0.00035858044
ExecutionTime = 3.105006 s  ClockTime = 3 s

Time = 21s

smoothSolver:  Solving for Ux, Initial residual = 0.010256974, Final residual = 0.0009185883, No Iterations 2
smoothSolver:  Solving for Uy, Initial residual = 0.18540939, Final residual = 0.01596722, No Iterations 2
smoothSolver:  Solving for Uz, Initial residual = 0.0053621136, Final residual = 0.00052012815, No Iterations 2
GAMG:  Solving for p, Initial residual = 0.31619753, Final residual = 0.001934992, No Iterations 5
time step continuity errors : sum local = 0.0002439251, global = -2.3519626e-06, cumulative = -0.0003609324
ExecutionTime = 3.239871 s  ClockTime = 4 s

Time = 22s

smoothSolver:  Solving for Ux, Initial residual = 0.0098135417, Final residual = 0.00088358526, No Iterations 2
smoothSolver:  Solving for Uy, Initial residual = 0.1447315, Final residual = 0.011650029, No Iterations 2
smoothSolver:  Solving for Uz, Initial residual = 0.012981716, Final residual = 0.00045563179, No Iterations 3
GAMG:  Solving for p, Initial residual = 0.19023726, Final residual = 0.0011273195, No Iterations 4
time step continuity errors : sum local = 0.00030364009, global = -4.2743531e-07, cumulative = -0.00036135984
ExecutionTime = 3.367938 s  ClockTime = 4 s

Time = 23s

smoothSolver:  Solving for Ux, Initial residual = 0.0074267507, Final residual = 0.00070725935, No Iterations 2
smoothSolver:  Solving for Uy, Initial residual = 0.082555374, Final residual = 0.0066858463, No Iterations 2
smoothSolver:  Solving for Uz, Initial residual = 0.012175027, Final residual = 0.00042691717, No Iterations 3
GAMG:  Solving for p, Initial residual = 0.14870877, Final residual = 0.00074828979, No Iterations 5
time step continuity errors : sum local = 0.00019186051, global = 2.12094e-06, cumulative = -0.0003592389
ExecutionTime = 3.5042 s  ClockTime = 4 s

Time = 24s

smoothSolver:  Solving for Ux, Initial residual = 0.0058072382, Final residual = 0.00055694334, No Iterations 2
smoothSolver:  Solving for Uy, Initial residual = 0.093098912, Final residual = 0.008566473, No Iterations 2
smoothSolver:  Solving for Uz, Initial residual = 0.0049101847, Final residual = 0.00016171449, No Iterations 3
GAMG:  Solving for p, Initial residual = 0.12934493, Final residual = 0.00050314305, No Iterations 6
time step continuity errors : sum local = 7.1091823e-05, global = -3.3159434e-06, cumulative = -0.00036255484
ExecutionTime = 3.647739 s  ClockTime = 4 s

Time = 25s

smoothSolver:  Solving for Ux, Initial residual = 0.0059761677, Final residual = 0.00056147414, No Iterations 2
smoothSolver:  Solving for Uy, Initial residual = 0.10983819, Final residual = 0.0096462578, No Iterations 2
smoothSolver:  Solving for Uz, Initial residual = 0.0051582561, Final residual = 0.0001807253, No Iterations 3
GAMG:  Solving for p, Initial residual = 0.12746849, Final residual = 0.00056008807, No Iterations 5
time step continuity errors : sum local = 9.4198175e-05, global = 1.0897311e-07, cumulative = -0.00036244587
ExecutionTime = 3.783766 s  ClockTime = 4 s

Time = 26s

smoothSolver:  Solving for Ux, Initial residual = 0.0055509191, Final residual = 0.00054177689, No Iterations 2
smoothSolver:  Solving for Uy, Initial residual = 0.080211336, Final residual = 0.0068466938, No Iterations 2
smoothSolver:  Solving for Uz, Initial residual = 0.0074172717, Final residual = 0.00026943667, No Iterations 3
GAMG:  Solving for p, Initial residual = 0.10806659, Final residual = 0.00080608864, No Iterations 4
time step continuity errors : sum local = 0.00017860628, global = -1.1169282e-07, cumulative = -0.00036255756
ExecutionTime = 3.912402 s  ClockTime = 4 s

Time = 27s

smoothSolver:  Solving for Ux, Initial residual = 0.0044273592, Final residual = 0.00014648861, No Iterations 3
smoothSolver:  Solving for Uy, Initial residual = 0.05149012, Final residual = 0.004750404, No Iterations 2
smoothSolver:  Solving for Uz, Initial residual = 0.006198786, Final residual = 0.00022345244, No Iterations 3
GAMG:  Solving for p, Initial residual = 0.078336284, Final residual = 0.00048080118, No Iterations 5
time step continuity errors : sum local = 9.8102681e-05, global = -1.6317512e-06, cumulative = -0.00036418931
ExecutionTime = 4.051373 s  ClockTime = 4 s

Time = 28s

smoothSolver:  Solving for Ux, Initial residual = 0.0041006775, Final residual = 0.00013198121, No Iterations 3
smoothSolver:  Solving for Uy, Initial residual = 0.05841073, Final residual = 0.0055423697, No Iterations 2
smoothSolver:  Solving for Uz, Initial residual = 0.0037530689, Final residual = 0.00012919536, No Iterations 3
GAMG:  Solving for p, Initial residual = 0.061868941, Final residual = 0.00055582064, No Iterations 5
time step continuity errors : sum local = 8.1473407e-05, global = -1.5194988e-06, cumulative = -0.00036570881
ExecutionTime = 4.18817 s  ClockTime = 5 s

Time = 29s

smoothSolver:  Solving for Ux, Initial residual = 0.0037154465, Final residual = 0.00036094934, No Iterations 2
smoothSolver:  Solving for Uy, Initial residual = 0.05961731, Final residual = 0.0054252028, No Iterations 2
smoothSolver:  Solving for Uz, Initial residual = 0.0029668557, Final residual = 9.5946479e-05, No Iterations 3
GAMG:  Solving for p, Initial residual = 0.12012147, Final residual = 0.00098702217, No Iterations 4
time step continuity errors : sum local = 9.9087443e-05, global = 7.9909206e-07, cumulative = -0.00036490972
ExecutionTime = 4.318316 s  ClockTime = 5 s

Time = 30s

smoothSolver:  Solving for Ux, Initial residual = 0.0030274655, Final residual = 0.00029457815, No Iterations 2
smoothSolver:  Solving for Uy, Initial residual = 0.043722163, Final residual = 0.0039980337, No Iterations 2
smoothSolver:  Solving for Uz, Initial residual = 0.0032447793, Final residual = 0.00010739129, No Iterations 3
GAMG:  Solving for p, Initial residual = 0.10236589, Final residual = 0.00077699323, No Iterations 4
time step continuity errors : sum local = 9.0462466e-05, global = -2.8948941e-07, cumulative = -0.00036519921
ExecutionTime = 4.446268 s  ClockTime = 5 s

Time = 31s

smoothSolver:  Solving for Ux, Initial residual = 0.0026463293, Final residual = 8.3935738e-05, No Iterations 3
smoothSolver:  Solving for Uy, Initial residual = 0.034775043, Final residual = 0.003438546, No Iterations 2
smoothSolver:  Solving for Uz, Initial residual = 0.0027251614, Final residual = 8.9758981e-05, No Iterations 3
GAMG:  Solving for p, Initial residual = 0.07577699, Final residual = 0.00045039008, No Iterations 5
time step continuity errors : sum local = 4.6202547e-05, global = 6.3959652e-07, cumulative = -0.00036455961
ExecutionTime = 4.584208 s  ClockTime = 5 s

Time = 32s

smoothSolver:  Solving for Ux, Initial residual = 0.0028014101, Final residual = 9.0202425e-05, No Iterations 3
smoothSolver:  Solving for Uy, Initial residual = 0.03868084, Final residual = 0.0038159523, No Iterations 2
smoothSolver:  Solving for Uz, Initial residual = 0.0028871299, Final residual = 9.8471882e-05, No Iterations 3
GAMG:  Solving for p, Initial residual = 0.046366319, Final residual = 0.00028171719, No Iterations 5
time step continuity errors : sum local = 3.3659948e-05, global = 3.7582791e-07, cumulative = -0.00036418378
ExecutionTime = 4.722216 s  ClockTime = 5 s

Time = 33s

smoothSolver:  Solving for Ux, Initial residual = 0.0028152532, Final residual = 9.2009088e-05, No Iterations 3
smoothSolver:  Solving for Uy, Initial residual = 0.036782204, Final residual = 0.0035841192, No Iterations 2
smoothSolver:  Solving for Uz, Initial residual = 0.0033360769, Final residual = 0.00011659593, No Iterations 3
GAMG:  Solving for p, Initial residual = 0.046584491, Final residual = 0.00030914439, No Iterations 4
time step continuity errors : sum local = 4.3614985e-05, global = -4.0986177e-07, cumulative = -0.00036459364
ExecutionTime = 4.852238 s  ClockTime = 5 s

Time = 34s

smoothSolver:  Solving for Ux, Initial residual = 0.0025885241, Final residual = 8.7460715e-05, No Iterations 3
smoothSolver:  Solving for Uy, Initial residual = 0.029439096, Final residual = 0.00093159357, No Iterations 3
smoothSolver:  Solving for Uz, Initial residual = 0.0033740244, Final residual = 0.00011850978, No Iterations 3
GAMG:  Solving for p, Initial residual = 0.040568248, Final residual = 0.00033482005, No Iterations 4
time step continuity errors : sum local = 4.8886788e-05, global = 6.885791e-07, cumulative = -0.00036390506
ExecutionTime = 4.987169 s  ClockTime = 5 s

Time = 35s

smoothSolver:  Solving for Ux, Initial residual = 0.0024483447, Final residual = 8.3834872e-05, No Iterations 3
smoothSolver:  Solving for Uy, Initial residual = 0.02626396, Final residual = 0.00086345794, No Iterations 3
smoothSolver:  Solving for Uz, Initial residual = 0.0030590164, Final residual = 0.00010649551, No Iterations 3
GAMG:  Solving for p, Initial residual = 0.030658706, Final residual = 0.00016677302, No Iterations 5
time step continuity errors : sum local = 2.2968162e-05, global = -5.2756549e-07, cumulative = -0.00036443263
ExecutionTime = 5.131652 s  ClockTime = 6 s

Time = 36s

smoothSolver:  Solving for Ux, Initial residual = 0.0023858842, Final residual = 8.0350155e-05, No Iterations 3
smoothSolver:  Solving for Uy, Initial residual = 0.026688844, Final residual = 0.00086139569, No Iterations 3
smoothSolver:  Solving for Uz, Initial residual = 0.0026978494, Final residual = 9.2658763e-05, No Iterations 3
GAMG:  Solving for p, Initial residual = 0.032231177, Final residual = 0.00029223066, No Iterations 4
time step continuity errors : sum local = 3.6488369e-05, global = 8.4645267e-07, cumulative = -0.00036358618
ExecutionTime = 5.269908 s  ClockTime = 6 s

Time = 37s

smoothSolver:  Solving for Ux, Initial residual = 0.0022573765, Final residual = 7.5572381e-05, No Iterations 3
smoothSolver:  Solving for Uy, Initial residual = 0.024935328, Final residual = 0.00080621755, No Iterations 3
smoothSolver:  Solving for Uz, Initial residual = 0.0025082589, Final residual = 8.5502433e-05, No Iterations 3
GAMG:  Solving for p, Initial residual = 0.038020914, Final residual = 0.00022368234, No Iterations 4
time step continuity errors : sum local = 2.6129179e-05, global = 3.9250304e-07, cumulative = -0.00036319367
ExecutionTime = 5.402606 s  ClockTime = 6 s

Time = 38s

smoothSolver:  Solving for Ux, Initial residual = 0.0021336491, Final residual = 7.2197376e-05, No Iterations 3
smoothSolver:  Solving for Uy, Initial residual = 0.022554117, Final residual = 0.00075274392, No Iterations 3
smoothSolver:  Solving for Uz, Initial residual = 0.0024587508, Final residual = 8.3951769e-05, No Iterations 3
GAMG:  Solving for p, Initial residual = 0.034300817, Final residual = 0.00022287503, No Iterations 4
time step continuity errors : sum local = 2.5971387e-05, global = -1.0007996e-07, cumulative = -0.00036329375
ExecutionTime = 5.534315 s  ClockTime = 6 s

Time = 39s

smoothSolver:  Solving for Ux, Initial residual = 0.0020998635, Final residual = 7.1611036e-05, No Iterations 3
smoothSolver:  Solving for Uy, Initial residual = 0.022033306, Final residual = 0.00074560543, No Iterations 3
smoothSolver:  Solving for Uz, Initial residual = 0.002488604, Final residual = 8.5565786e-05, No Iterations 3
GAMG:  Solving for p, Initial residual = 0.027303487, Final residual = 0.00020854501, No Iterations 4
time step continuity errors : sum local = 2.5347097e-05, global = -2.5987747e-07, cumulative = -0.00036355363
ExecutionTime = 5.666814 s  ClockTime = 6 s

Time = 40s

smoothSolver:  Solving for Ux, Initial residual = 0.0020935375, Final residual = 7.167423e-05, No Iterations 3
smoothSolver:  Solving for Uy, Initial residual = 0.021842246, Final residual = 0.00073663236, No Iterations 3
smoothSolver:  Solving for Uz, Initial residual = 0.0025504825, Final residual = 8.8409027e-05, No Iterations 3
GAMG:  Solving for p, Initial residual = 0.02482122, Final residual = 0.0001474791, No Iterations 4
time step continuity errors : sum local = 1.8842499e-05, global = -6.5671053e-08, cumulative = -0.0003636193
ExecutionTime = 5.797884 s  ClockTime = 6 s

Time = 41s

smoothSolver:  Solving for Ux, Initial residual = 0.0020552489, Final residual = 7.084475e-05, No Iterations 3
smoothSolver:  Solving for Uy, Initial residual = 0.020716946, Final residual = 0.00070244314, No Iterations 3
smoothSolver:  Solving for Uz, Initial residual = 0.0025704497, Final residual = 8.9525764e-05, No Iterations 3
GAMG:  Solving for p, Initial residual = 0.024071783, Final residual = 0.00011987512, No Iterations 4
time step continuity errors : sum local = 1.5758469e-05, global = 1.2599415e-07, cumulative = -0.00036349331
ExecutionTime = 5.93038 s  ClockTime = 6 s

Time = 42s

smoothSolver:  Solving for Ux, Initial residual = 0.002006629, Final residual = 6.9554916e-05, No Iterations 3
smoothSolver:  Solving for Uy, Initial residual = 0.019539978, Final residual = 0.00066916484, No Iterations 3
smoothSolver:  Solving for Uz, Initial residual = 0.0025200785, Final residual = 8.7821491e-05, No Iterations 3
GAMG:  Solving for p, Initial residual = 0.022481472, Final residual = 0.00014043209, No Iterations 4
time step continuity errors : sum local = 1.849614e-05, global = 1.5802788e-07, cumulative = -0.00036333528
ExecutionTime = 6.061226 s  ClockTime = 6 s

Time = 43s

smoothSolver:  Solving for Ux, Initial residual = 0.0019684302, Final residual = 6.8222847e-05, No Iterations 3
smoothSolver:  Solving for Uy, Initial residual = 0.018945627, Final residual = 0.00064976351, No Iterations 3
smoothSolver:  Solving for Uz, Initial residual = 0.002424575, Final residual = 8.4302969e-05, No Iterations 3
GAMG:  Solving for p, Initial residual = 0.02162768, Final residual = 0.00013696616, No Iterations 4
time step continuity errors : sum local = 1.7741162e-05, global = 1.9924294e-07, cumulative = -0.00036313604
ExecutionTime = 6.191587 s  ClockTime = 7 s

Time = 44s

smoothSolver:  Solving for Ux, Initial residual = 0.0019316126, Final residual = 6.6787127e-05, No Iterations 3
smoothSolver:  Solving for Uy, Initial residual = 0.018501189, Final residual = 0.00063344469, No Iterations 3
smoothSolver:  Solving for Uz, Initial residual = 0.0023354258, Final residual = 8.101397e-05, No Iterations 3
GAMG:  Solving for p, Initial residual = 0.022159079, Final residual = 0.00012237351, No Iterations 4
time step continuity errors : sum local = 1.5560441e-05, global = 9.8010025e-08, cumulative = -0.00036303803
ExecutionTime = 6.322037 s  ClockTime = 7 s

Time = 45s

smoothSolver:  Solving for Ux, Initial residual = 0.0018929474, Final residual = 6.5450861e-05, No Iterations 3
smoothSolver:  Solving for Uy, Initial residual = 0.017939942, Final residual = 0.00061617019, No Iterations 3
smoothSolver:  Solving for Uz, Initial residual = 0.0022778543, Final residual = 7.8976035e-05, No Iterations 3
GAMG:  Solving for p, Initial residual = 0.022156477, Final residual = 0.00016519858, No Iterations 3
time step continuity errors : sum local = 2.0847831e-05, global = 2.8142177e-07, cumulative = -0.00036275661
ExecutionTime = 6.445815 s  ClockTime = 7 s

Time = 46s

smoothSolver:  Solving for Ux, Initial residual = 0.0018625385, Final residual = 6.4514034e-05, No Iterations 3
smoothSolver:  Solving for Uy, Initial residual = 0.01744331, Final residual = 0.00060163282, No Iterations 3
smoothSolver:  Solving for Uz, Initial residual = 0.0022459844, Final residual = 7.7981362e-05, No Iterations 3
GAMG:  Solving for p, Initial residual = 0.021158064, Final residual = 0.00010324977, No Iterations 4
time step continuity errors : sum local = 1.3092214e-05, global = -3.1915954e-08, cumulative = -0.00036278852
ExecutionTime = 6.57807 s  ClockTime = 7 s

Time = 47s

smoothSolver:  Solving for Ux, Initial residual = 0.0018408028, Final residual = 6.3861837e-05, No Iterations 3
smoothSolver:  Solving for Uy, Initial residual = 0.017073912, Final residual = 0.00058987847, No Iterations 3
smoothSolver:  Solving for Uz, Initial residual = 0.0022304731, Final residual = 7.7635297e-05, No Iterations 3
GAMG:  Solving for p, Initial residual = 0.020114834, Final residual = 0.00010102699, No Iterations 4
time step continuity errors : sum local = 1.2970542e-05, global = -4.946516e-08, cumulative = -0.00036283799
ExecutionTime = 6.709083 s  ClockTime = 7 s

Time = 48s

smoothSolver:  Solving for Ux, Initial residual = 0.0018203191, Final residual = 6.3246677e-05, No Iterations 3
smoothSolver:  Solving for Uy, Initial residual = 0.016669024, Final residual = 0.00057634012, No Iterations 3
smoothSolver:  Solving for Uz, Initial residual = 0.0022156673, Final residual = 7.7300039e-05, No Iterations 3
GAMG:  Solving for p, Initial residual = 0.019499882, Final residual = 0.00015613609, No Iterations 3
time step continuity errors : sum local = 2.0291434e-05, global = -2.3493909e-08, cumulative = -0.00036286148
ExecutionTime = 6.834189 s  ClockTime = 7 s

Time = 49s

smoothSolver:  Solving for Ux, Initial residual = 0.0017967313, Final residual = 6.2517877e-05, No Iterations 3
smoothSolver:  Solving for Uy, Initial residual = 0.016199085, Final residual = 0.00056124634, No Iterations 3
smoothSolver:  Solving for Uz, Initial residual = 0.0021884405, Final residual = 7.6441749e-05, No Iterations 3
GAMG:  Solving for p, Initial residual = 0.019056993, Final residual = 0.00016073752, No Iterations 3
time step continuity errors : sum local = 2.1013052e-05, global = 4.5113211e-07, cumulative = -0.00036241035
ExecutionTime = 6.95823 s  ClockTime = 7 s

Time = 50s

smoothSolver:  Solving for Ux, Initial residual = 0.0017752258, Final residual = 6.182427e-05, No Iterations 3
smoothSolver:  Solving for Uy, Initial residual = 0.015778309, Final residual = 0.00054756197, No Iterations 3
smoothSolver:  Solving for Uz, Initial residual = 0.0021560062, Final residual = 7.5355674e-05, No Iterations 3
GAMG:  Solving for p, Initial residual = 0.018660002, Final residual = 0.0001124373, No Iterations 4
time step continuity errors : sum local = 1.4743962e-05, global = 1.5038503e-07, cumulative = -0.00036225996
ExecutionTime = 7.090026 s  ClockTime = 8 s

Time = 51s

smoothSolver:  Solving for Ux, Initial residual = 0.0017564813, Final residual = 6.1149973e-05, No Iterations 3
smoothSolver:  Solving for Uy, Initial residual = 0.015442208, Final residual = 0.00053639272, No Iterations 3
smoothSolver:  Solving for Uz, Initial residual = 0.0021144783, Final residual = 7.3873039e-05, No Iterations 3
GAMG:  Solving for p, Initial residual = 0.018475944, Final residual = 0.00011054602, No Iterations 4
time step continuity errors : sum local = 1.4466155e-05, global = 1.394791e-07, cumulative = -0.00036212048
ExecutionTime = 7.222804 s  ClockTime = 8 s

Time = 52s

smoothSolver:  Solving for Ux, Initial residual = 0.0017382532, Final residual = 6.0481931e-05, No Iterations 3
smoothSolver:  Solving for Uy, Initial residual = 0.015133369, Final residual = 0.00052608992, No Iterations 3
smoothSolver:  Solving for Uz, Initial residual = 0.0020744374, Final residual = 7.2443194e-05, No Iterations 3
GAMG:  Solving for p, Initial residual = 0.018373894, Final residual = 0.00010314904, No Iterations 4
time step continuity errors : sum local = 1.3465657e-05, global = 1.4781138e-07, cumulative = -0.00036197267
ExecutionTime = 7.354305 s  ClockTime = 8 s

Time = 53s

smoothSolver:  Solving for Ux, Initial residual = 0.0017204927, Final residual = 5.9856068e-05, No Iterations 3
smoothSolver:  Solving for Uy, Initial residual = 0.014822597, Final residual = 0.00051580155, No Iterations 3
smoothSolver:  Solving for Uz, Initial residual = 0.0020408955, Final residual = 7.1279309e-05, No Iterations 3
GAMG:  Solving for p, Initial residual = 0.01815507, Final residual = 0.00012624464, No Iterations 3
time step continuity errors : sum local = 1.6482865e-05, global = 3.4812491e-07, cumulative = -0.00036162455
ExecutionTime = 7.479476 s  ClockTime = 8 s

Time = 54s

smoothSolver:  Solving for Ux, Initial residual = 0.0017034181, Final residual = 5.9274751e-05, No Iterations 3
smoothSolver:  Solving for Uy, Initial residual = 0.014501438, Final residual = 0.00050510772, No Iterations 3
smoothSolver:  Solving for Uz, Initial residual = 0.0020139968, Final residual = 7.0391216e-05, No Iterations 3
GAMG:  Solving for p, Initial residual = 0.017787967, Final residual = 0.00012503229, No Iterations 3
time step continuity errors : sum local = 1.63807e-05, global = 2.4335562e-07, cumulative = -0.00036138119
ExecutionTime = 7.602111 s  ClockTime = 8 s

Time = 55s

smoothSolver:  Solving for Ux, Initial residual = 0.0016886455, Final residual = 5.8760181e-05, No Iterations 3
smoothSolver:  Solving for Uy, Initial residual = 0.014198373, Final residual = 0.00049470323, No Iterations 3
smoothSolver:  Solving for Uz, Initial residual = 0.0019889285, Final residual = 6.9565558e-05, No Iterations 3
GAMG:  Solving for p, Initial residual = 0.01745398, Final residual = 0.00013450587, No Iterations 3
time step continuity errors : sum local = 1.7691737e-05, global = 2.809494e-07, cumulative = -0.00036110024
ExecutionTime = 7.725871 s  ClockTime = 8 s

Time = 56s

smoothSolver:  Solving for Ux, Initial residual = 0.0016759896, Final residual = 5.8316019e-05, No Iterations 3
smoothSolver:  Solving for Uy, Initial residual = 0.013908674, Final residual = 0.00048466529, No Iterations 3
smoothSolver:  Solving for Uz, Initial residual = 0.001964895, Final residual = 6.8774321e-05, No Iterations 3
GAMG:  Solving for p, Initial residual = 0.017167713, Final residual = 0.00014037785, No Iterations 3
time step continuity errors : sum local = 1.8540467e-05, global = 4.2016452e-07, cumulative = -0.00036068008
ExecutionTime = 7.849146 s  ClockTime = 8 s

Time = 57s

smoothSolver:  Solving for Ux, Initial residual = 0.0016651712, Final residual = 5.793042e-05, No Iterations 3
smoothSolver:  Solving for Uy, Initial residual = 0.013634218, Final residual = 0.00047514211, No Iterations 3
smoothSolver:  Solving for Uz, Initial residual = 0.0019410879, Final residual = 6.7983876e-05, No Iterations 3
GAMG:  Solving for p, Initial residual = 0.016908598, Final residual = 0.00015148467, No Iterations 3
time step continuity errors : sum local = 2.0084425e-05, global = 5.6439152e-07, cumulative = -0.00036011569
ExecutionTime = 7.974275 s  ClockTime = 8 s

Time = 58s

smoothSolver:  Solving for Ux, Initial residual = 0.0016557707, Final residual = 5.7590721e-05, No Iterations 3
smoothSolver:  Solving for Uy, Initial residual = 0.013374558, Final residual = 0.00046616381, No Iterations 3
smoothSolver:  Solving for Uz, Initial residual = 0.0019170837, Final residual = 6.7173641e-05, No Iterations 3
GAMG:  Solving for p, Initial residual = 0.016684497, Final residual = 9.7445562e-05, No Iterations 4
time step continuity errors : sum local = 1.2961185e-05, global = 2.1267955e-07, cumulative = -0.00035990301
ExecutionTime = 8.103628 s  ClockTime = 9 s

Time = 59s

smoothSolver:  Solving for Ux, Initial residual = 0.0016482046, Final residual = 5.7299989e-05, No Iterations 3
smoothSolver:  Solving for Uy, Initial residual = 0.013138425, Final residual = 0.00045802071, No Iterations 3
smoothSolver:  Solving for Uz, Initial residual = 0.001891728, Final residual = 6.6293793e-05, No Iterations 3
GAMG:  Solving for p, Initial residual = 0.01649925, Final residual = 9.4143573e-05, No Iterations 4
time step continuity errors : sum local = 1.2543428e-05, global = 1.5923813e-07, cumulative = -0.00035974377
ExecutionTime = 8.235668 s  ClockTime = 9 s

Time = 60s

smoothSolver:  Solving for Ux, Initial residual = 0.001640091, Final residual = 5.6999205e-05, No Iterations 3
smoothSolver:  Solving for Uy, Initial residual = 0.012897332, Final residual = 0.00044976281, No Iterations 3
smoothSolver:  Solving for Uz, Initial residual = 0.0018659321, Final residual = 6.5399613e-05, No Iterations 3
GAMG:  Solving for p, Initial residual = 0.016318973, Final residual = 0.00015115928, No Iterations 3
time step continuity errors : sum local = 2.0163995e-05, global = 2.7358798e-07, cumulative = -0.00035947018
ExecutionTime = 8.359341 s  ClockTime = 9 s

Time = 61s

smoothSolver:  Solving for Ux, Initial residual = 0.0016303626, Final residual = 5.6661479e-05, No Iterations 3
smoothSolver:  Solving for Uy, Initial residual = 0.012642946, Final residual = 0.00044105458, No Iterations 3
smoothSolver:  Solving for Uz, Initial residual = 0.0018420361, Final residual = 6.4589407e-05, No Iterations 3
GAMG:  Solving for p, Initial residual = 0.016118827, Final residual = 0.00014639253, No Iterations 3
time step continuity errors : sum local = 1.9569907e-05, global = 2.1580105e-07, cumulative = -0.00035925438
ExecutionTime = 8.483173 s  ClockTime = 9 s

Time = 62s

smoothSolver:  Solving for Ux, Initial residual = 0.0016222909, Final residual = 5.6372711e-05, No Iterations 3
smoothSolver:  Solving for Uy, Initial residual = 0.012400219, Final residual = 0.00043263528, No Iterations 3
smoothSolver:  Solving for Uz, Initial residual = 0.0018188854, Final residual = 6.3801297e-05, No Iterations 3
GAMG:  Solving for p, Initial residual = 0.015950753, Final residual = 0.00014875909, No Iterations 3
time step continuity errors : sum local = 1.9930259e-05, global = 2.2805317e-07, cumulative = -0.00035902633
ExecutionTime = 8.608265 s  ClockTime = 9 s

Time = 63s

smoothSolver:  Solving for Ux, Initial residual = 0.0016164623, Final residual = 5.6158933e-05, No Iterations 3
smoothSolver:  Solving for Uy, Initial residual = 0.012177509, Final residual = 0.00042480208, No Iterations 3
smoothSolver:  Solving for Uz, Initial residual = 0.0017965561, Final residual = 6.3035791e-05, No Iterations 3
GAMG:  Solving for p, Initial residual = 0.015779284, Final residual = 0.00015594083, No Iterations 3
time step continuity errors : sum local = 2.0940117e-05, global = 2.9248097e-07, cumulative = -0.00035873385
ExecutionTime = 8.73342 s  ClockTime = 9 s

Time = 64s

smoothSolver:  Solving for Ux, Initial residual = 0.0016124946, Final residual = 5.6001948e-05, No Iterations 3
smoothSolver:  Solving for Uy, Initial residual = 0.011971635, Final residual = 0.00041751528, No Iterations 3
smoothSolver:  Solving for Uz, Initial residual = 0.0017749429, Final residual = 6.2289816e-05, No Iterations 3
GAMG:  Solving for p, Initial residual = 0.015627949, Final residual = 9.179899e-05, No Iterations 4
time step continuity errors : sum local = 1.2355051e-05, global = 1.5022332e-07, cumulative = -0.00035858362
ExecutionTime = 8.865621 s  ClockTime = 9 s

Time = 65s

smoothSolver:  Solving for Ux, Initial residual = 0.0016107805, Final residual = 5.5914027e-05, No Iterations 3
smoothSolver:  Solving for Uy, Initial residual = 0.011783001, Final residual = 0.00041073803, No Iterations 3
smoothSolver:  Solving for Uz, Initial residual = 0.0017534957, Final residual = 6.1537223e-05, No Iterations 3
GAMG:  Solving for p, Initial residual = 0.015517526, Final residual = 0.00014206487, No Iterations 3
time step continuity errors : sum local = 1.9152908e-05, global = 4.1269094e-07, cumulative = -0.00035817093
ExecutionTime = 8.990067 s  ClockTime = 9 s

Time = 66s

smoothSolver:  Solving for Ux, Initial residual = 0.0016061324, Final residual = 5.5739937e-05, No Iterations 3
smoothSolver:  Solving for Uy, Initial residual = 0.011577601, Final residual = 0.00040343996, No Iterations 3
smoothSolver:  Solving for Uz, Initial residual = 0.0017335392, Final residual = 6.0857639e-05, No Iterations 3
GAMG:  Solving for p, Initial residual = 0.015361613, Final residual = 0.00013955053, No Iterations 3
time step continuity errors : sum local = 1.8861986e-05, global = 4.6764377e-07, cumulative = -0.00035770329
ExecutionTime = 9.114966 s  ClockTime = 10 s

Time = 67s

smoothSolver:  Solving for Ux, Initial residual = 0.0016014557, Final residual = 5.556618e-05, No Iterations 3
smoothSolver:  Solving for Uy, Initial residual = 0.011374626, Final residual = 0.00039619124, No Iterations 3
smoothSolver:  Solving for Uz, Initial residual = 0.0017142269, Final residual = 6.0203219e-05, No Iterations 3
GAMG:  Solving for p, Initial residual = 0.015195555, Final residual = 0.00014283039, No Iterations 3
time step continuity errors : sum local = 1.9355001e-05, global = 4.9642417e-07, cumulative = -0.00035720686
ExecutionTime = 9.238549 s  ClockTime = 10 s

Time = 68s

smoothSolver:  Solving for Ux, Initial residual = 0.0015972995, Final residual = 5.5411455e-05, No Iterations 3
smoothSolver:  Solving for Uy, Initial residual = 0.011178285, Final residual = 0.00038916921, No Iterations 3
smoothSolver:  Solving for Uz, Initial residual = 0.0016953113, Final residual = 5.9559481e-05, No Iterations 3
GAMG:  Solving for p, Initial residual = 0.015043336, Final residual = 0.00014902604, No Iterations 3
time step continuity errors : sum local = 2.0244672e-05, global = 4.8865444e-07, cumulative = -0.00035671821
ExecutionTime = 9.363358 s  ClockTime = 10 s

Time = 69s

smoothSolver:  Solving for Ux, Initial residual = 0.0015939781, Final residual = 5.5285932e-05, No Iterations 3
smoothSolver:  Solving for Uy, Initial residual = 0.010988458, Final residual = 0.00038237757, No Iterations 3
smoothSolver:  Solving for Uz, Initial residual = 0.0016766182, Final residual = 5.8920804e-05, No Iterations 3
GAMG:  Solving for p, Initial residual = 0.014912704, Final residual = 8.9690271e-05, No Iterations 4
time step continuity errors : sum local = 1.2212377e-05, global = 1.8121414e-07, cumulative = -0.000356537
ExecutionTime = 9.494657 s  ClockTime = 10 s

Time = 70s

smoothSolver:  Solving for Ux, Initial residual = 0.0015926897, Final residual = 5.5223616e-05, No Iterations 3
smoothSolver:  Solving for Uy, Initial residual = 0.010813473, Final residual = 0.00037604713, No Iterations 3
smoothSolver:  Solving for Uz, Initial residual = 0.0016576877, Final residual = 5.8263981e-05, No Iterations 3
GAMG:  Solving for p, Initial residual = 0.014834457, Final residual = 0.00013635503, No Iterations 3
time step continuity errors : sum local = 1.85967e-05, global = 3.4529303e-07, cumulative = -0.0003561917
ExecutionTime = 9.617696 s  ClockTime = 10 s

Time = 71s

smoothSolver:  Solving for Ux, Initial residual = 0.0015889911, Final residual = 5.5094817e-05, No Iterations 3
smoothSolver:  Solving for Uy, Initial residual = 0.01062858, Final residual = 0.00036940843, No Iterations 3
smoothSolver:  Solving for Uz, Initial residual = 0.0016397169, Final residual = 5.7656232e-05, No Iterations 3
GAMG:  Solving for p, Initial residual = 0.014690488, Final residual = 0.00013716024, No Iterations 3
time step continuity errors : sum local = 1.8748778e-05, global = 2.7875146e-07, cumulative = -0.00035591295
ExecutionTime = 9.741314 s  ClockTime = 10 s

Time = 72s

smoothSolver:  Solving for Ux, Initial residual = 0.0015858159, Final residual = 5.4979337e-05, No Iterations 3
smoothSolver:  Solving for Uy, Initial residual = 0.010446355, Final residual = 0.00036292652, No Iterations 3
smoothSolver:  Solving for Uz, Initial residual = 0.0016220689, Final residual = 5.7058026e-05, No Iterations 3
GAMG:  Solving for p, Initial residual = 0.01454265, Final residual = 0.00014334379, No Iterations 3
time step continuity errors : sum local = 1.9636839e-05, global = 2.6225329e-07, cumulative = -0.0003556507
ExecutionTime = 9.865291 s  ClockTime = 10 s

Time = 73s

smoothSolver:  Solving for Ux, Initial residual = 0.0015833748, Final residual = 5.4892022e-05, No Iterations 3
smoothSolver:  Solving for Uy, Initial residual = 0.010271833, Final residual = 0.00035673345, No Iterations 3
smoothSolver:  Solving for Uz, Initial residual = 0.0016046081, Final residual = 5.6466838e-05, No Iterations 3
GAMG:  Solving for p, Initial residual = 0.014403149, Final residual = 8.6110166e-05, No Iterations 4
time step continuity errors : sum local = 1.1820932e-05, global = 1.1752848e-07, cumulative = -0.00035553317
ExecutionTime = 9.997928 s  ClockTime = 10 s

Time = 74s

smoothSolver:  Solving for Ux, Initial residual = 0.0015829249, Final residual = 5.4864554e-05, No Iterations 3
smoothSolver:  Solving for Uy, Initial residual = 0.010112251, Final residual = 0.00035104666, No Iterations 3
smoothSolver:  Solving for Uz, Initial residual = 0.0015869847, Final residual = 5.5858015e-05, No Iterations 3
GAMG:  Solving for p, Initial residual = 0.014328118, Final residual = 0.00013384156, No Iterations 3
time step continuity errors : sum local = 1.8400143e-05, global = 3.1050817e-07, cumulative = -0.00035522266
ExecutionTime = 10.122689 s  ClockTime = 11 s

Time = 75s

smoothSolver:  Solving for Ux, Initial residual = 0.0015799157, Final residual = 5.4752029e-05, No Iterations 3
smoothSolver:  Solving for Uy, Initial residual = 0.0099459799, Final residual = 0.00034522639, No Iterations 3
smoothSolver:  Solving for Uz, Initial residual = 0.0015705581, Final residual = 5.530458e-05, No Iterations 3
GAMG:  Solving for p, Initial residual = 0.014187983, Final residual = 0.00013525438, No Iterations 3
time step continuity errors : sum local = 1.8635933e-05, global = 3.5296156e-07, cumulative = -0.0003548697
ExecutionTime = 10.245665 s  ClockTime = 11 s

Time = 76s

smoothSolver:  Solving for Ux, Initial residual = 0.0015773194, Final residual = 5.4642826e-05, No Iterations 3
smoothSolver:  Solving for Uy, Initial residual = 0.0097886885, Final residual = 0.00033964066, No Iterations 3
smoothSolver:  Solving for Uz, Initial residual = 0.0015546192, Final residual = 5.4762818e-05, No Iterations 3
GAMG:  Solving for p, Initial residual = 0.014069396, Final residual = 8.1670653e-05, No Iterations 4
time step continuity errors : sum local = 1.1278246e-05, global = 1.762512e-07, cumulative = -0.00035469345
ExecutionTime = 10.377269 s  ClockTime = 11 s

Time = 77s

smoothSolver:  Solving for Ux, Initial residual = 0.0015767881, Final residual = 5.4592178e-05, No Iterations 3
smoothSolver:  Solving for Uy, Initial residual = 0.0096435417, Final residual = 0.00033448144, No Iterations 3
smoothSolver:  Solving for Uz, Initial residual = 0.0015388009, Final residual = 5.4213191e-05, No Iterations 3
GAMG:  Solving for p, Initial residual = 0.014002345, Final residual = 0.00012877288, No Iterations 3
time step continuity errors : sum local = 1.7814491e-05, global = 3.8249828e-07, cumulative = -0.00035431095
ExecutionTime = 10.504789 s  ClockTime = 11 s

Time = 78s

smoothSolver:  Solving for Ux, Initial residual = 0.0015740853, Final residual = 5.4479217e-05, No Iterations 3
smoothSolver:  Solving for Uy, Initial residual = 0.0094900672, Final residual = 0.00032912656, No Iterations 3
smoothSolver:  Solving for Uz, Initial residual = 0.0015236707, Final residual = 5.3700569e-05, No Iterations 3
GAMG:  Solving for p, Initial residual = 0.0138882, Final residual = 0.0001322052, No Iterations 3
time step continuity errors : sum local = 1.8330912e-05, global = 3.8152168e-07, cumulative = -0.00035392943
ExecutionTime = 10.628539 s  ClockTime = 11 s

Time = 79s

smoothSolver:  Solving for Ux, Initial residual = 0.0015719578, Final residual = 5.4386272e-05, No Iterations 3
smoothSolver:  Solving for Uy, Initial residual = 0.0093389659, Final residual = 0.00032384277, No Iterations 3
smoothSolver:  Solving for Uz, Initial residual = 0.0015087367, Final residual = 5.3191221e-05, No Iterations 3
GAMG:  Solving for p, Initial residual = 0.01375276, Final residual = 8.0368781e-05, No Iterations 4
time step continuity errors : sum local = 1.1168051e-05, global = 1.6194651e-07, cumulative = -0.00035376748
ExecutionTime = 10.760821 s  ClockTime = 11 s

Time = 80s

smoothSolver:  Solving for Ux, Initial residual = 0.0015716676, Final residual = 5.4351776e-05, No Iterations 3
smoothSolver:  Solving for Uy, Initial residual = 0.0091945524, Final residual = 0.00031874313, No Iterations 3
smoothSolver:  Solving for Uz, Initial residual = 0.001493637, Final residual = 5.2665626e-05, No Iterations 3
GAMG:  Solving for p, Initial residual = 0.013656901, Final residual = 0.00012718715, No Iterations 3
time step continuity errors : sum local = 1.7703348e-05, global = 3.117576e-07, cumulative = -0.00035345572
ExecutionTime = 10.885825 s  ClockTime = 11 s

Time = 81s

smoothSolver:  Solving for Ux, Initial residual = 0.0015691781, Final residual = 5.4247319e-05, No Iterations 3
smoothSolver:  Solving for Uy, Initial residual = 0.0090456485, Final residual = 0.00031352392, No Iterations 3
smoothSolver:  Solving for Uz, Initial residual = 0.0014792028, Final residual = 5.2172714e-05, No Iterations 3
GAMG:  Solving for p, Initial residual = 0.013531227, Final residual = 0.00013071415, No Iterations 3
time step continuity errors : sum local = 1.8234004e-05, global = 2.8110879e-07, cumulative = -0.00035317462
ExecutionTime = 11.011274 s  ClockTime = 11 s

Time = 82s

smoothSolver:  Solving for Ux, Initial residual = 0.0015671561, Final residual = 5.4163884e-05, No Iterations 3
smoothSolver:  Solving for Uy, Initial residual = 0.0089043312, Final residual = 0.00030855065, No Iterations 3
smoothSolver:  Solving for Uz, Initial residual = 0.0014650262, Final residual = 5.1688312e-05, No Iterations 3
GAMG:  Solving for p, Initial residual = 0.013430016, Final residual = 7.8744717e-05, No Iterations 4
time step continuity errors : sum local = 1.1008032e-05, global = 1.2666408e-07, cumulative = -0.00035304795
ExecutionTime = 11.142557 s  ClockTime = 12 s

Time = 83s

smoothSolver:  Solving for Ux, Initial residual = 0.0015668914, Final residual = 5.4147304e-05, No Iterations 3
smoothSolver:  Solving for Uy, Initial residual = 0.0087741573, Final residual = 0.00030399345, No Iterations 3
smoothSolver:  Solving for Uz, Initial residual = 0.0014506885, Final residual = 5.1192607e-05, No Iterations 3
GAMG:  Solving for p, Initial residual = 0.013372434, Final residual = 0.00012535531, No Iterations 3
time step continuity errors : sum local = 1.7552019e-05, global = 2.6278667e-07, cumulative = -0.00035278516
ExecutionTime = 11.268464 s  ClockTime = 12 s

Time = 84s

smoothSolver:  Solving for Ux, Initial residual = 0.0015646217, Final residual = 5.4073539e-05, No Iterations 3
smoothSolver:  Solving for Uy, Initial residual = 0.008643298, Final residual = 0.00029949647, No Iterations 3
smoothSolver:  Solving for Uz, Initial residual = 0.0014371005, Final residual = 5.0734678e-05, No Iterations 3
GAMG:  Solving for p, Initial residual = 0.013267121, Final residual = 0.00012839289, No Iterations 3
time step continuity errors : sum local = 1.8016038e-05, global = 2.8026491e-07, cumulative = -0.0003525049
ExecutionTime = 11.392638 s  ClockTime = 12 s

Time = 85s

smoothSolver:  Solving for Ux, Initial residual = 0.0015628365, Final residual = 5.4023227e-05, No Iterations 3
smoothSolver:  Solving for Uy, Initial residual = 0.0085149883, Final residual = 0.00029515642, No Iterations 3
smoothSolver:  Solving for Uz, Initial residual = 0.0014237363, Final residual = 5.0283831e-05, No Iterations 3
GAMG:  Solving for p, Initial residual = 0.013173726, Final residual = 7.6734049e-05, No Iterations 4
time step continuity errors : sum local = 1.0790024e-05, global = 1.4592193e-07, cumulative = -0.00035235898
ExecutionTime = 11.523342 s  ClockTime = 12 s

Time = 86s

smoothSolver:  Solving for Ux, Initial residual = 0.0015626994, Final residual = 5.4039201e-05, No Iterations 3
smoothSolver:  Solving for Uy, Initial residual = 0.0083932701, Final residual = 0.00029098866, No Iterations 3
smoothSolver:  Solving for Uz, Initial residual = 0.0014102414, Final residual = 4.9825203e-05, No Iterations 3
GAMG:  Solving for p, Initial residual = 0.013112474, Final residual = 0.0001237312, No Iterations 3
time step continuity errors : sum local = 1.7427113e-05, global = 3.0096219e-07, cumulative = -0.00035205802
ExecutionTime = 11.648699 s  ClockTime = 12 s

Time = 87s

smoothSolver:  Solving for Ux, Initial residual = 0.0015604392, Final residual = 5.3999468e-05, No Iterations 3
smoothSolver:  Solving for Uy, Initial residual = 0.0082682779, Final residual = 0.0002867483, No Iterations 3
smoothSolver:  Solving for Uz, Initial residual = 0.0013973922, Final residual = 4.9402576e-05, No Iterations 3
GAMG:  Solving for p, Initial residual = 0.012996042, Final residual = 0.00012584191, No Iterations 3
time step continuity errors : sum local = 1.7761744e-05, global = 3.1561007e-07, cumulative = -0.00035174241
ExecutionTime = 11.773561 s  ClockTime = 12 s

Time = 88s

smoothSolver:  Solving for Ux, Initial residual = 0.0015585714, Final residual = 5.3978933e-05, No Iterations 3
smoothSolver:  Solving for Uy, Initial residual = 0.0081464178, Final residual = 0.00028259741, No Iterations 3
smoothSolver:  Solving for Uz, Initial residual = 0.0013847513, Final residual = 4.8986316e-05, No Iterations 3
GAMG:  Solving for p, Initial residual = 0.01289674, Final residual = 7.3406097e-05, No Iterations 4
time step continuity errors : sum local = 1.0382125e-05, global = 1.5353927e-07, cumulative = -0.00035158887
ExecutionTime = 11.906365 s  ClockTime = 12 s

Time = 89s

smoothSolver:  Solving for Ux, Initial residual = 0.0015581715, Final residual = 5.4007781e-05, No Iterations 3
smoothSolver:  Solving for Uy, Initial residual = 0.0080288143, Final residual = 0.00027861679, No Iterations 3
smoothSolver:  Solving for Uz, Initial residual = 0.0013720423, Final residual = 4.8559278e-05, No Iterations 3
GAMG:  Solving for p, Initial residual = 0.012859463, Final residual = 0.00011928459, No Iterations 3
time step continuity errors : sum local = 1.6898295e-05, global = 2.9334891e-07, cumulative = -0.00035129552
ExecutionTime = 12.033503 s  ClockTime = 13 s

Time = 90s

smoothSolver:  Solving for Ux, Initial residual = 0.0015558579, Final residual = 5.3983577e-05, No Iterations 3
smoothSolver:  Solving for Uy, Initial residual = 0.0079119345, Final residual = 0.00027470914, No Iterations 3
smoothSolver:  Solving for Uz, Initial residual = 0.0013599412, Final residual = 4.816237e-05, No Iterations 3
GAMG:  Solving for p, Initial residual = 0.012772918, Final residual = 0.00012093859, No Iterations 3
time step continuity errors : sum local = 1.7167556e-05, global = 2.8734426e-07, cumulative = -0.00035100817
ExecutionTime = 12.158088 s  ClockTime = 13 s

Time = 91s

smoothSolver:  Solving for Ux, Initial residual = 0.0015540136, Final residual = 5.3972383e-05, No Iterations 3
smoothSolver:  Solving for Uy, Initial residual = 0.0078022067, Final residual = 0.00027104381, No Iterations 3
smoothSolver:  Solving for Uz, Initial residual = 0.0013480662, Final residual = 4.7771031e-05, No Iterations 3
GAMG:  Solving for p, Initial residual = 0.012691251, Final residual = 0.00012547376, No Iterations 3
time step continuity errors : sum local = 1.7846927e-05, global = 2.908444e-07, cumulative = -0.00035071733
ExecutionTime = 12.28308 s  ClockTime = 13 s

Time = 92s

smoothSolver:  Solving for Ux, Initial residual = 0.0015526526, Final residual = 5.3977197e-05, No Iterations 3
smoothSolver:  Solving for Uy, Initial residual = 0.0076989257, Final residual = 0.00026760054, No Iterations 3
smoothSolver:  Solving for Uz, Initial residual = 0.0013363306, Final residual = 4.7384688e-05, No Iterations 3
GAMG:  Solving for p, Initial residual = 0.012621208, Final residual = 7.1020517e-05, No Iterations 4
time step continuity errors : sum local = 1.0121061e-05, global = 1.4063676e-07, cumulative = -0.00035057669
ExecutionTime = 12.415464 s  ClockTime = 13 s

Time = 93s

smoothSolver:  Solving for Ux, Initial residual = 0.0015525563, Final residual = 5.4015829e-05, No Iterations 3
smoothSolver:  Solving for Uy, Initial residual = 0.0075998857, Final residual = 0.00026427326, No Iterations 3
smoothSolver:  Solving for Uz, Initial residual = 0.0013245921, Final residual = 4.6991435e-05, No Iterations 3
GAMG:  Solving for p, Initial residual = 0.012604263, Final residual = 0.00011642946, No Iterations 3
time step continuity errors : sum local = 1.6617035e-05, global = 2.6291814e-07, cumulative = -0.00035031377
ExecutionTime = 12.540198 s  ClockTime = 13 s

Time = 94s

smoothSolver:  Solving for Ux, Initial residual = 0.0015502729, Final residual = 5.3984172e-05, No Iterations 3
smoothSolver:  Solving for Uy, Initial residual = 0.0074958674, Final residual = 0.0002607848, No Iterations 3
smoothSolver:  Solving for Uz, Initial residual = 0.0013132851, Final residual = 4.662359e-05, No Iterations 3
GAMG:  Solving for p, Initial residual = 0.012544889, Final residual = 0.00011511053, No Iterations 3
time step continuity errors : sum local = 1.6460522e-05, global = 2.5808363e-07, cumulative = -0.00035005569
ExecutionTime = 12.663133 s  ClockTime = 13 s

Time = 95s

smoothSolver:  Solving for Ux, Initial residual = 0.0015480446, Final residual = 5.3951499e-05, No Iterations 3
smoothSolver:  Solving for Uy, Initial residual = 0.0073890404, Final residual = 0.00025716325, No Iterations 3
smoothSolver:  Solving for Uz, Initial residual = 0.0013020641, Final residual = 4.6257178e-05, No Iterations 3
GAMG:  Solving for p, Initial residual = 0.012477363, Final residual = 0.00011751007, No Iterations 3
time step continuity errors : sum local = 1.6835611e-05, global = 2.6330628e-07, cumulative = -0.00034979238
ExecutionTime = 12.789933 s  ClockTime = 13 s

Time = 96s

smoothSolver:  Solving for Ux, Initial residual = 0.0015460508, Final residual = 5.3920006e-05, No Iterations 3
smoothSolver:  Solving for Uy, Initial residual = 0.0072815966, Final residual = 0.0002534991, No Iterations 3
smoothSolver:  Solving for Uz, Initial residual = 0.0012908814, Final residual = 4.588961e-05, No Iterations 3
GAMG:  Solving for p, Initial residual = 0.012396232, Final residual = 0.00012110939, No Iterations 3
time step continuity errors : sum local = 1.7382766e-05, global = 2.7533539e-07, cumulative = -0.00034951705
ExecutionTime = 12.914302 s  ClockTime = 13 s

Time = 97s

smoothSolver:  Solving for Ux, Initial residual = 0.0015441655, Final residual = 5.3886132e-05, No Iterations 3
smoothSolver:  Solving for Uy, Initial residual = 0.007176786, Final residual = 0.00024992402, No Iterations 3
smoothSolver:  Solving for Uz, Initial residual = 0.0012798055, Final residual = 4.5521676e-05, No Iterations 3
GAMG:  Solving for p, Initial residual = 0.012331331, Final residual = 0.00012326462, No Iterations 3
time step continuity errors : sum local = 1.7722686e-05, global = 2.8878495e-07, cumulative = -0.00034922826
ExecutionTime = 13.038202 s  ClockTime = 14 s

Time = 98s

smoothSolver:  Solving for Ux, Initial residual = 0.0015422538, Final residual = 5.3848978e-05, No Iterations 3
smoothSolver:  Solving for Uy, Initial residual = 0.0070763951, Final residual = 0.00024651522, No Iterations 3
smoothSolver:  Solving for Uz, Initial residual = 0.0012689216, Final residual = 4.5156865e-05, No Iterations 3
GAMG:  Solving for p, Initial residual = 0.012266887, Final residual = 6.636745e-05, No Iterations 4
time step continuity errors : sum local = 9.5579368e-06, global = 1.4137859e-07, cumulative = -0.00034908688
ExecutionTime = 13.170065 s  ClockTime = 14 s

Time = 99s

smoothSolver:  Solving for Ux, Initial residual = 0.001540859, Final residual = 5.3823168e-05, No Iterations 3
smoothSolver:  Solving for Uy, Initial residual = 0.006981054, Final residual = 0.00024329737, No Iterations 3
smoothSolver:  Solving for Uz, Initial residual = 0.0012581775, Final residual = 4.4790086e-05, No Iterations 3
GAMG:  Solving for p, Initial residual = 0.012225601, Final residual = 0.0001069209, No Iterations 3
time step continuity errors : sum local = 1.5418518e-05, global = 2.5443445e-07, cumulative = -0.00034883245
ExecutionTime = 13.294322 s  ClockTime = 14 s

Time = 100s

smoothSolver:  Solving for Ux, Initial residual = 0.0015376798, Final residual = 5.3741747e-05, No Iterations 3
smoothSolver:  Solving for Uy, Initial residual = 0.0068892329, Final residual = 0.00024014872, No Iterations 3
smoothSolver:  Solving for Uz, Initial residual = 0.0012479369, Final residual = 4.445328e-05, No Iterations 3
GAMG:  Solving for p, Initial residual = 0.012141948, Final residual = 0.00010502487, No Iterations 3
time step continuity errors : sum local = 1.5173101e-05, global = 2.4034517e-07, cumulative = -0.00034859211
ExecutionTime = 13.418681 s  ClockTime = 14 s

Time = 101s

smoothSolver:  Solving for Ux, Initial residual = 0.0015348707, Final residual = 5.3671607e-05, No Iterations 3
smoothSolver:  Solving for Uy, Initial residual = 0.0067996203, Final residual = 0.00023710695, No Iterations 3
smoothSolver:  Solving for Uz, Initial residual = 0.0012378728, Final residual = 4.4123475e-05, No Iterations 3
GAMG:  Solving for p, Initial residual = 0.012041818, Final residual = 0.00010859008, No Iterations 3
time step continuity errors : sum local = 1.5717954e-05, global = 2.4206678e-07, cumulative = -0.00034835004
ExecutionTime = 13.54458 s  ClockTime = 14 s

Time = 102s

smoothSolver:  Solving for Ux, Initial residual = 0.001532729, Final residual = 5.3622473e-05, No Iterations 3
smoothSolver:  Solving for Uy, Initial residual = 0.0067107311, Final residual = 0.00023411963, No Iterations 3
smoothSolver:  Solving for Uz, Initial residual = 0.0012278504, Final residual = 4.3794669e-05, No Iterations 3
GAMG:  Solving for p, Initial residual = 0.011948704, Final residual = 0.00011385706, No Iterations 3
time step continuity errors : sum local = 1.6511426e-05, global = 2.5144509e-07, cumulative = -0.00034809859
ExecutionTime = 13.66949 s  ClockTime = 14 s

Time = 103s

smoothSolver:  Solving for Ux, Initial residual = 0.0015310458, Final residual = 5.358142e-05, No Iterations 3
smoothSolver:  Solving for Uy, Initial residual = 0.0066220218, Final residual = 0.0002311387, No Iterations 3
smoothSolver:  Solving for Uz, Initial residual = 0.0012179089, Final residual = 4.3466664e-05, No Iterations 3
GAMG:  Solving for p, Initial residual = 0.011870038, Final residual = 0.00011770155, No Iterations 3
time step continuity errors : sum local = 1.7100486e-05, global = 2.6544695e-07, cumulative = -0.00034783315
ExecutionTime = 13.795356 s  ClockTime = 14 s

Time = 104s

smoothSolver:  Solving for Ux, Initial residual = 0.0015292646, Final residual = 5.3533401e-05, No Iterations 3
smoothSolver:  Solving for Uy, Initial residual = 0.0065334339, Final residual = 0.00022814793, No Iterations 3
smoothSolver:  Solving for Uz, Initial residual = 0.001208112, Final residual = 4.3143033e-05, No Iterations 3
GAMG:  Solving for p, Initial residual = 0.011808952, Final residual = 6.3227295e-05, No Iterations 4
time step continuity errors : sum local = 9.2027811e-06, global = 1.3640719e-07, cumulative = -0.00034769674
ExecutionTime = 13.927628 s  ClockTime = 14 s

Time = 105s

smoothSolver:  Solving for Ux, Initial residual = 0.0015275857, Final residual = 5.3480789e-05, No Iterations 3
smoothSolver:  Solving for Uy, Initial residual = 0.006447649, Final residual = 0.00022518488, No Iterations 3
smoothSolver:  Solving for Uz, Initial residual = 0.0011983919, Final residual = 4.2816112e-05, No Iterations 3
GAMG:  Solving for p, Initial residual = 0.011760033, Final residual = 0.00010422374, No Iterations 3
time step continuity errors : sum local = 1.519244e-05, global = 2.4650313e-07, cumulative = -0.00034745024
ExecutionTime = 14.052402 s  ClockTime = 15 s

Time = 106s

smoothSolver:  Solving for Ux, Initial residual = 0.0015240158, Final residual = 5.3367871e-05, No Iterations 3
smoothSolver:  Solving for Uy, Initial residual = 0.006365265, Final residual = 0.00022237313, No Iterations 3
smoothSolver:  Solving for Uz, Initial residual = 0.0011890333, Final residual = 4.2510343e-05, No Iterations 3
GAMG:  Solving for p, Initial residual = 0.011677543, Final residual = 0.00010198046, No Iterations 3
time step continuity errors : sum local = 1.4893472e-05, global = 2.4229832e-07, cumulative = -0.00034720794
ExecutionTime = 14.175813 s  ClockTime = 15 s

Time = 107s

smoothSolver:  Solving for Ux, Initial residual = 0.0015205675, Final residual = 5.3261498e-05, No Iterations 3
smoothSolver:  Solving for Uy, Initial residual = 0.0062881347, Final residual = 0.00021977865, No Iterations 3
smoothSolver:  Solving for Uz, Initial residual = 0.0011798459, Final residual = 4.2208134e-05, No Iterations 3
GAMG:  Solving for p, Initial residual = 0.011607099, Final residual = 0.00010438568, No Iterations 3
time step continuity errors : sum local = 1.5273452e-05, global = 2.4549718e-07, cumulative = -0.00034696244
ExecutionTime = 14.299425 s  ClockTime = 15 s

Time = 108s

smoothSolver:  Solving for Ux, Initial residual = 0.0015175967, Final residual = 5.3172581e-05, No Iterations 3
smoothSolver:  Solving for Uy, Initial residual = 0.0062125822, Final residual = 0.00021723909, No Iterations 3
smoothSolver:  Solving for Uz, Initial residual = 0.0011707002, Final residual = 4.1903594e-05, No Iterations 3
GAMG:  Solving for p, Initial residual = 0.011547988, Final residual = 0.00010861013, No Iterations 3
time step continuity errors : sum local = 1.5920436e-05, global = 2.5501935e-07, cumulative = -0.00034670742
ExecutionTime = 14.425172 s  ClockTime = 15 s

Time = 109s

smoothSolver:  Solving for Ux, Initial residual = 0.0015149591, Final residual = 5.3098884e-05, No Iterations 3
smoothSolver:  Solving for Uy, Initial residual = 0.0061351398, Final residual = 0.00021461969, No Iterations 3
smoothSolver:  Solving for Uz, Initial residual = 0.001161523, Final residual = 4.1597145e-05, No Iterations 3
GAMG:  Solving for p, Initial residual = 0.01150577, Final residual = 0.00011171084, No Iterations 3
time step continuity errors : sum local = 1.6403331e-05, global = 2.6608424e-07, cumulative = -0.00034644134
ExecutionTime = 14.552047 s  ClockTime = 15 s

Time = 110s

smoothSolver:  Solving for Ux, Initial residual = 0.0015123092, Final residual = 5.3022946e-05, No Iterations 3
smoothSolver:  Solving for Uy, Initial residual = 0.0060546645, Final residual = 0.00021186867, No Iterations 3
smoothSolver:  Solving for Uz, Initial residual = 0.0011523577, Final residual = 4.1290225e-05, No Iterations 3
GAMG:  Solving for p, Initial residual = 0.011468431, Final residual = 0.00011238379, No Iterations 3
time step continuity errors : sum local = 1.6529369e-05, global = 2.7394893e-07, cumulative = -0.00034616739
ExecutionTime = 14.677306 s  ClockTime = 15 s

Time = 111s

smoothSolver:  Solving for Ux, Initial residual = 0.001509284, Final residual = 5.2929541e-05, No Iterations 3
smoothSolver:  Solving for Uy, Initial residual = 0.005973366, Final residual = 0.00020907013, No Iterations 3
smoothSolver:  Solving for Uz, Initial residual = 0.0011432912, Final residual = 4.0984544e-05, No Iterations 3
GAMG:  Solving for p, Initial residual = 0.011439874, Final residual = 0.00011073576, No Iterations 3
time step continuity errors : sum local = 1.6312854e-05, global = 2.751376e-07, cumulative = -0.00034589225
ExecutionTime = 14.801346 s  ClockTime = 15 s

Time = 112s

smoothSolver:  Solving for Ux, Initial residual = 0.0015058714, Final residual = 5.2821818e-05, No Iterations 3
smoothSolver:  Solving for Uy, Initial residual = 0.0058935816, Final residual = 0.00020631472, No Iterations 3
smoothSolver:  Solving for Uz, Initial residual = 0.0011343925, Final residual = 4.0685616e-05, No Iterations 3
GAMG:  Solving for p, Initial residual = 0.011397382, Final residual = 0.00010795293, No Iterations 3
time step continuity errors : sum local = 1.5928088e-05, global = 2.742569e-07, cumulative = -0.00034561799
ExecutionTime = 14.926355 s  ClockTime = 15 s

Time = 113s

smoothSolver:  Solving for Ux, Initial residual = 0.0015022094, Final residual = 5.2709698e-05, No Iterations 3
smoothSolver:  Solving for Uy, Initial residual = 0.0058180999, Final residual = 0.0002037658, No Iterations 3
smoothSolver:  Solving for Uz, Initial residual = 0.001125677, Final residual = 4.0392998e-05, No Iterations 3
GAMG:  Solving for p, Initial residual = 0.01134263, Final residual = 0.00010580946, No Iterations 3
time step continuity errors : sum local = 1.5636586e-05, global = 2.7171184e-07, cumulative = -0.00034534628
ExecutionTime = 15.052981 s  ClockTime = 16 s

Time = 114s

smoothSolver:  Solving for Ux, Initial residual = 0.0014985741, Final residual = 5.2605591e-05, No Iterations 3
smoothSolver:  Solving for Uy, Initial residual = 0.0057490812, Final residual = 0.00020147068, No Iterations 3
smoothSolver:  Solving for Uz, Initial residual = 0.0011171181, Final residual = 4.0105722e-05, No Iterations 3
GAMG:  Solving for p, Initial residual = 0.011293468, Final residual = 0.00010495958, No Iterations 3
time step continuity errors : sum local = 1.553597e-05, global = 2.6637401e-07, cumulative = -0.00034507991
ExecutionTime = 15.177629 s  ClockTime = 16 s

Time = 115s

smoothSolver:  Solving for Ux, Initial residual = 0.00149511, Final residual = 5.2512691e-05, No Iterations 3
smoothSolver:  Solving for Uy, Initial residual = 0.0056849044, Final residual = 0.00019931644, No Iterations 3
smoothSolver:  Solving for Uz, Initial residual = 0.0011086558, Final residual = 3.9820698e-05, No Iterations 3
GAMG:  Solving for p, Initial residual = 0.011265693, Final residual = 0.00010476939, No Iterations 3
time step continuity errors : sum local = 1.5532887e-05, global = 2.5994184e-07, cumulative = -0.00034481997
ExecutionTime = 15.303463 s  ClockTime = 16 s

Time = 116s

smoothSolver:  Solving for Ux, Initial residual = 0.0014917428, Final residual = 5.2436478e-05, No Iterations 3
smoothSolver:  Solving for Uy, Initial residual = 0.0056226291, Final residual = 0.00019717924, No Iterations 3
smoothSolver:  Solving for Uz, Initial residual = 0.0011002409, Final residual = 3.9538328e-05, No Iterations 3
GAMG:  Solving for p, Initial residual = 0.011235035, Final residual = 0.00010491221, No Iterations 3
time step continuity errors : sum local = 1.5578561e-05, global = 2.5732697e-07, cumulative = -0.00034456264
ExecutionTime = 15.426719 s  ClockTime = 16 s

Time = 117s

smoothSolver:  Solving for Ux, Initial residual = 0.0014883745, Final residual = 5.2363166e-05, No Iterations 3
smoothSolver:  Solving for Uy, Initial residual = 0.0055595042, Final residual = 0.00019498179, No Iterations 3
smoothSolver:  Solving for Uz, Initial residual = 0.0010918305, Final residual = 3.9258448e-05, No Iterations 3
GAMG:  Solving for p, Initial residual = 0.011187483, Final residual = 0.0001052724, No Iterations 3
time step continuity errors : sum local = 1.5656011e-05, global = 2.5944507e-07, cumulative = -0.00034430319
ExecutionTime = 15.552377 s  ClockTime = 16 s

Time = 118s

smoothSolver:  Solving for Ux, Initial residual = 0.0014849026, Final residual = 5.2283225e-05, No Iterations 3
smoothSolver:  Solving for Uy, Initial residual = 0.0054943971, Final residual = 0.00019273488, No Iterations 3
smoothSolver:  Solving for Uz, Initial residual = 0.001083478, Final residual = 3.8980132e-05, No Iterations 3
GAMG:  Solving for p, Initial residual = 0.011129824, Final residual = 0.00010534532, No Iterations 3
time step continuity errors : sum local = 1.5690217e-05, global = 2.6428837e-07, cumulative = -0.00034403891
ExecutionTime = 15.675883 s  ClockTime = 16 s

Time = 119s

smoothSolver:  Solving for Ux, Initial residual = 0.0014812467, Final residual = 5.2194345e-05, No Iterations 3
smoothSolver:  Solving for Uy, Initial residual = 0.0054294057, Final residual = 0.00019051227, No Iterations 3
smoothSolver:  Solving for Uz, Initial residual = 0.0010752336, Final residual = 3.8704856e-05, No Iterations 3
GAMG:  Solving for p, Initial residual = 0.011060438, Final residual = 0.00010512077, No Iterations 3
time step continuity errors : sum local = 1.567964e-05, global = 2.7065988e-07, cumulative = -0.00034376825
ExecutionTime = 15.798756 s  ClockTime = 16 s

Time = 120s

smoothSolver:  Solving for Ux, Initial residual = 0.0014773575, Final residual = 5.2093957e-05, No Iterations 3
smoothSolver:  Solving for Uy, Initial residual = 0.0053672512, Final residual = 0.00018839033, No Iterations 3
smoothSolver:  Solving for Uz, Initial residual = 0.0010671451, Final residual = 3.8432709e-05, No Iterations 3
GAMG:  Solving for p, Initial residual = 0.010989524, Final residual = 0.00010486027, No Iterations 3
time step continuity errors : sum local = 1.5663968e-05, global = 2.7746494e-07, cumulative = -0.00034349078
ExecutionTime = 15.922725 s  ClockTime = 16 s

Time = 121s

smoothSolver:  Solving for Ux, Initial residual = 0.0014733708, Final residual = 5.1992197e-05, No Iterations 3
smoothSolver:  Solving for Uy, Initial residual = 0.0053090954, Final residual = 0.00018642275, No Iterations 3
smoothSolver:  Solving for Uz, Initial residual = 0.0010592035, Final residual = 3.8165522e-05, No Iterations 3
GAMG:  Solving for p, Initial residual = 0.010914201, Final residual = 0.00010400046, No Iterations 3
time step continuity errors : sum local = 1.5558517e-05, global = 2.8044571e-07, cumulative = -0.00034321034
ExecutionTime = 16.049162 s  ClockTime = 17 s

Time = 122s

smoothSolver:  Solving for Ux, Initial residual = 0.0014694194, Final residual = 5.1893301e-05, No Iterations 3
smoothSolver:  Solving for Uy, Initial residual = 0.005253922, Final residual = 0.00018456803, No Iterations 3
smoothSolver:  Solving for Uz, Initial residual = 0.0010513535, Final residual = 3.7901971e-05, No Iterations 3
GAMG:  Solving for p, Initial residual = 0.010838285, Final residual = 0.00010291779, No Iterations 3
time step continuity errors : sum local = 1.541937e-05, global = 2.7987774e-07, cumulative = -0.00034293046
ExecutionTime = 16.173558 s  ClockTime = 17 s

Time = 123s

smoothSolver:  Solving for Ux, Initial residual = 0.0014655346, Final residual = 5.1795695e-05, No Iterations 3
smoothSolver:  Solving for Uy, Initial residual = 0.0052007821, Final residual = 0.00018276235, No Iterations 3
smoothSolver:  Solving for Uz, Initial residual = 0.0010435611, Final residual = 3.7640848e-05, No Iterations 3
GAMG:  Solving for p, Initial residual = 0.010786297, Final residual = 0.00010217033, No Iterations 3
time step continuity errors : sum local = 1.5330189e-05, global = 2.764617e-07, cumulative = -0.000342654
ExecutionTime = 16.299067 s  ClockTime = 17 s

Time = 124s

smoothSolver:  Solving for Ux, Initial residual = 0.0014616968, Final residual = 5.1700483e-05, No Iterations 3
smoothSolver:  Solving for Uy, Initial residual = 0.0051500603, Final residual = 0.00018101776, No Iterations 3
smoothSolver:  Solving for Uz, Initial residual = 0.001035828, Final residual = 3.73843e-05, No Iterations 3
GAMG:  Solving for p, Initial residual = 0.010755322, Final residual = 0.00010156803, No Iterations 3
time step continuity errors : sum local = 1.526252e-05, global = 2.7198099e-07, cumulative = -0.00034238201
ExecutionTime = 16.422901 s  ClockTime = 17 s

Time = 125s

smoothSolver:  Solving for Ux, Initial residual = 0.0014578788, Final residual = 5.1605182e-05, No Iterations 3
smoothSolver:  Solving for Uy, Initial residual = 0.0051023502, Final residual = 0.00017938387, No Iterations 3
smoothSolver:  Solving for Uz, Initial residual = 0.0010282398, Final residual = 3.7132708e-05, No Iterations 3
GAMG:  Solving for p, Initial residual = 0.010736044, Final residual = 0.00010093487, No Iterations 3
time step continuity errors : sum local = 1.5190194e-05, global = 2.6834829e-07, cumulative = -0.00034211367
ExecutionTime = 16.547717 s  ClockTime = 17 s

Time = 126s

smoothSolver:  Solving for Ux, Initial residual = 0.0014540829, Final residual = 5.1510112e-05, No Iterations 3
smoothSolver:  Solving for Uy, Initial residual = 0.0050575711, Final residual = 0.00017785846, No Iterations 3
smoothSolver:  Solving for Uz, Initial residual = 0.0010208072, Final residual = 3.6887157e-05, No Iterations 3
GAMG:  Solving for p, Initial residual = 0.010694933, Final residual = 0.00010012789, No Iterations 3
time step continuity errors : sum local = 1.509146e-05, global = 2.6625851e-07, cumulative = -0.00034184741
ExecutionTime = 16.671434 s  ClockTime = 17 s

Time = 127s

smoothSolver:  Solving for Ux, Initial residual = 0.001450215, Final residual = 5.1409947e-05, No Iterations 3
smoothSolver:  Solving for Uy, Initial residual = 0.0050145438, Final residual = 0.0001764148, No Iterations 3
smoothSolver:  Solving for Uz, Initial residual = 0.0010134919, Final residual = 3.664628e-05, No Iterations 3
GAMG:  Solving for p, Initial residual = 0.010634522, Final residual = 9.9572139e-05, No Iterations 3
time step continuity errors : sum local = 1.5029953e-05, global = 2.6608986e-07, cumulative = -0.00034158132
ExecutionTime = 16.7966 s  ClockTime = 17 s

Time = 128s

smoothSolver:  Solving for Ux, Initial residual = 0.0014462452, Final residual = 5.1310342e-05, No Iterations 3
smoothSolver:  Solving for Uy, Initial residual = 0.0049714599, Final residual = 0.00017498423, No Iterations 3
smoothSolver:  Solving for Uz, Initial residual = 0.0010062627, Final residual = 3.6408177e-05, No Iterations 3
GAMG:  Solving for p, Initial residual = 0.01058436, Final residual = 9.9367935e-05, No Iterations 3
time step continuity errors : sum local = 1.5021038e-05, global = 2.6786344e-07, cumulative = -0.00034131345
ExecutionTime = 16.921592 s  ClockTime = 17 s

Time = 129s

smoothSolver:  Solving for Ux, Initial residual = 0.0014422091, Final residual = 5.120959e-05, No Iterations 3
smoothSolver:  Solving for Uy, Initial residual = 0.0049275214, Final residual = 0.00017350677, No Iterations 3
smoothSolver:  Solving for Uz, Initial residual = 0.00099908763, Final residual = 3.6171557e-05, No Iterations 3
GAMG:  Solving for p, Initial residual = 0.010542245, Final residual = 9.9501093e-05, No Iterations 3
time step continuity errors : sum local = 1.5062873e-05, global = 2.7246932e-07, cumulative = -0.00034104099
ExecutionTime = 17.046365 s  ClockTime = 18 s

Time = 130s

smoothSolver:  Solving for Ux, Initial residual = 0.0014380372, Final residual = 5.1111708e-05, No Iterations 3
smoothSolver:  Solving for Uy, Initial residual = 0.0048819855, Final residual = 0.00017197574, No Iterations 3
smoothSolver:  Solving for Uz, Initial residual = 0.00099192378, Final residual = 3.5937142e-05, No Iterations 3
[...]
GAMG:  Solving for p, Initial residual = 1.2184813e-05, Final residual = 9.6871546e-08, No Iterations 3
time step continuity errors : sum local = 1.7526562e-08, global = 1.5446713e-10, cumulative = -0.00027258319
ExecutionTime = 165.44876 s  ClockTime = 168 s

Time = 1321s

smoothSolver:  Solving for Ux, Initial residual = 1.2530956e-06, Final residual = 4.8459266e-08, No Iterations 3
smoothSolver:  Solving for Uy, Initial residual = 6.8860971e-06, Final residual = 2.730767e-07, No Iterations 3
smoothSolver:  Solving for Uz, Initial residual = 3.9798196e-07, Final residual = 1.4921505e-08, No Iterations 3
GAMG:  Solving for p, Initial residual = 1.2104141e-05, Final residual = 9.6038467e-08, No Iterations 3
time step continuity errors : sum local = 1.7375837e-08, global = 1.5162701e-10, cumulative = -0.00027258304
ExecutionTime = 165.57211 s  ClockTime = 168 s

Time = 1322s

smoothSolver:  Solving for Ux, Initial residual = 1.2440335e-06, Final residual = 4.8055308e-08, No Iterations 3
smoothSolver:  Solving for Uy, Initial residual = 6.8516738e-06, Final residual = 2.714299e-07, No Iterations 3
smoothSolver:  Solving for Uz, Initial residual = 3.9504266e-07, Final residual = 1.4784603e-08, No Iterations 3
GAMG:  Solving for p, Initial residual = 1.2028257e-05, Final residual = 9.5194129e-08, No Iterations 3
time step continuity errors : sum local = 1.7223075e-08, global = 1.4970872e-10, cumulative = -0.00027258289
ExecutionTime = 165.69541 s  ClockTime = 168 s

Time = 1323s

smoothSolver:  Solving for Ux, Initial residual = 1.2351181e-06, Final residual = 4.7651583e-08, No Iterations 3
smoothSolver:  Solving for Uy, Initial residual = 6.8152816e-06, Final residual = 2.6965115e-07, No Iterations 3
smoothSolver:  Solving for Uz, Initial residual = 3.9203185e-07, Final residual = 1.4648868e-08, No Iterations 3
GAMG:  Solving for p, Initial residual = 1.1955022e-05, Final residual = 9.444687e-08, No Iterations 3
time step continuity errors : sum local = 1.7087878e-08, global = 1.5167391e-10, cumulative = -0.00027258273
ExecutionTime = 165.81651 s  ClockTime = 168 s

Time = 1324s

smoothSolver:  Solving for Ux, Initial residual = 1.2265712e-06, Final residual = 4.7263879e-08, No Iterations 3
smoothSolver:  Solving for Uy, Initial residual = 6.7769389e-06, Final residual = 2.6769486e-07, No Iterations 3
smoothSolver:  Solving for Uz, Initial residual = 3.8901691e-07, Final residual = 1.4515404e-08, No Iterations 3
GAMG:  Solving for p, Initial residual = 1.1880962e-05, Final residual = 9.3701218e-08, No Iterations 3
time step continuity errors : sum local = 1.6952971e-08, global = 1.5698242e-10, cumulative = -0.00027258258
ExecutionTime = 165.94031 s  ClockTime = 168 s

Time = 1325s

smoothSolver:  Solving for Ux, Initial residual = 1.2182051e-06, Final residual = 4.690969e-08, No Iterations 3
smoothSolver:  Solving for Uy, Initial residual = 6.7361141e-06, Final residual = 2.6563409e-07, No Iterations 3
smoothSolver:  Solving for Uz, Initial residual = 3.8603877e-07, Final residual = 1.4385531e-08, No Iterations 3
GAMG:  Solving for p, Initial residual = 1.1808547e-05, Final residual = 9.2977199e-08, No Iterations 3
time step continuity errors : sum local = 1.6821978e-08, global = 1.6427944e-10, cumulative = -0.00027258241
ExecutionTime = 166.06305 s  ClockTime = 169 s

Time = 1326s

smoothSolver:  Solving for Ux, Initial residual = 1.2098695e-06, Final residual = 4.658664e-08, No Iterations 3
smoothSolver:  Solving for Uy, Initial residual = 6.694393e-06, Final residual = 2.6349727e-07, No Iterations 3
smoothSolver:  Solving for Uz, Initial residual = 3.8297244e-07, Final residual = 1.4259245e-08, No Iterations 3
GAMG:  Solving for p, Initial residual = 1.1737169e-05, Final residual = 9.276063e-08, No Iterations 3
time step continuity errors : sum local = 1.6782796e-08, global = 1.7488985e-10, cumulative = -0.00027258224
ExecutionTime = 166.18729 s  ClockTime = 169 s

Time = 1327s

smoothSolver:  Solving for Ux, Initial residual = 1.2017967e-06, Final residual = 4.6289155e-08, No Iterations 3
smoothSolver:  Solving for Uy, Initial residual = 6.6513347e-06, Final residual = 2.6122503e-07, No Iterations 3
smoothSolver:  Solving for Uz, Initial residual = 3.7983184e-07, Final residual = 1.4134184e-08, No Iterations 3
GAMG:  Solving for p, Initial residual = 1.1669425e-05, Final residual = 9.212783e-08, No Iterations 3
time step continuity errors : sum local = 1.6668307e-08, global = 1.8030813e-10, cumulative = -0.00027258206
ExecutionTime = 166.31102 s  ClockTime = 169 s

Time = 1328s

smoothSolver:  Solving for Ux, Initial residual = 1.1939783e-06, Final residual = 4.601456e-08, No Iterations 3
smoothSolver:  Solving for Uy, Initial residual = 6.6067241e-06, Final residual = 2.5887763e-07, No Iterations 3
smoothSolver:  Solving for Uz, Initial residual = 3.767881e-07, Final residual = 1.4014177e-08, No Iterations 3
GAMG:  Solving for p, Initial residual = 1.1599056e-05, Final residual = 9.1486483e-08, No Iterations 3
time step continuity errors : sum local = 1.6552272e-08, global = 1.8228818e-10, cumulative = -0.00027258188
ExecutionTime = 166.43446 s  ClockTime = 169 s

Time = 1329s

smoothSolver:  Solving for Ux, Initial residual = 1.186389e-06, Final residual = 4.5752641e-08, No Iterations 3
smoothSolver:  Solving for Uy, Initial residual = 6.5601378e-06, Final residual = 2.5645975e-07, No Iterations 3
smoothSolver:  Solving for Uz, Initial residual = 3.7389276e-07, Final residual = 1.390871e-08, No Iterations 3
GAMG:  Solving for p, Initial residual = 1.1526052e-05, Final residual = 9.060196e-08, No Iterations 3
time step continuity errors : sum local = 1.639224e-08, global = 1.7089965e-10, cumulative = -0.0002725817
ExecutionTime = 166.55886 s  ClockTime = 169 s

Time = 1330s

smoothSolver:  Solving for Ux, Initial residual = 1.1790162e-06, Final residual = 4.5499036e-08, No Iterations 3
smoothSolver:  Solving for Uy, Initial residual = 6.5118853e-06, Final residual = 2.5393997e-07, No Iterations 3
smoothSolver:  Solving for Uz, Initial residual = 3.7105915e-07, Final residual = 1.3810428e-08, No Iterations 3
GAMG:  Solving for p, Initial residual = 1.145095e-05, Final residual = 8.9611172e-08, No Iterations 3
time step continuity errors : sum local = 1.6212981e-08, global = 1.7534314e-10, cumulative = -0.00027258153
ExecutionTime = 166.68001 s  ClockTime = 169 s

Time = 1331s

smoothSolver:  Solving for Ux, Initial residual = 1.1715816e-06, Final residual = 4.5273257e-08, No Iterations 3
smoothSolver:  Solving for Uy, Initial residual = 6.4626693e-06, Final residual = 2.5138656e-07, No Iterations 3
smoothSolver:  Solving for Uz, Initial residual = 3.6828974e-07, Final residual = 1.3713912e-08, No Iterations 3
GAMG:  Solving for p, Initial residual = 1.1376376e-05, Final residual = 8.8964856e-08, No Iterations 3
time step continuity errors : sum local = 1.6096046e-08, global = 1.6882307e-10, cumulative = -0.00027258136
ExecutionTime = 166.80138 s  ClockTime = 169 s

Time = 1332s

smoothSolver:  Solving for Ux, Initial residual = 1.1644482e-06, Final residual = 4.5057051e-08, No Iterations 3
smoothSolver:  Solving for Uy, Initial residual = 6.4124403e-06, Final residual = 2.4880631e-07, No Iterations 3
smoothSolver:  Solving for Uz, Initial residual = 3.6566123e-07, Final residual = 1.3622593e-08, No Iterations 3
GAMG:  Solving for p, Initial residual = 1.1301544e-05, Final residual = 8.8332385e-08, No Iterations 3
time step continuity errors : sum local = 1.5981616e-08, global = 1.6198623e-10, cumulative = -0.0002725812
ExecutionTime = 166.92648 s  ClockTime = 169 s

Time = 1333s

smoothSolver:  Solving for Ux, Initial residual = 1.1574056e-06, Final residual = 4.4853832e-08, No Iterations 3
smoothSolver:  Solving for Uy, Initial residual = 6.3604295e-06, Final residual = 2.4630092e-07, No Iterations 3
smoothSolver:  Solving for Uz, Initial residual = 3.6312207e-07, Final residual = 1.3536366e-08, No Iterations 3
GAMG:  Solving for p, Initial residual = 1.1229841e-05, Final residual = 8.7713544e-08, No Iterations 3
time step continuity errors : sum local = 1.5869652e-08, global = 1.5508343e-10, cumulative = -0.00027258104
ExecutionTime = 167.05122 s  ClockTime = 170 s

Time = 1334s

smoothSolver:  Solving for Ux, Initial residual = 1.1505361e-06, Final residual = 4.4664037e-08, No Iterations 3
smoothSolver:  Solving for Uy, Initial residual = 6.3083829e-06, Final residual = 2.4379922e-07, No Iterations 3
smoothSolver:  Solving for Uz, Initial residual = 3.6070152e-07, Final residual = 1.345107e-08, No Iterations 3
GAMG:  Solving for p, Initial residual = 1.1158643e-05, Final residual = 8.7111033e-08, No Iterations 3
time step continuity errors : sum local = 1.5760642e-08, global = 1.48474e-10, cumulative = -0.00027258089
ExecutionTime = 167.17553 s  ClockTime = 170 s

Time = 1335s

smoothSolver:  Solving for Ux, Initial residual = 1.1439025e-06, Final residual = 4.44936e-08, No Iterations 3
smoothSolver:  Solving for Uy, Initial residual = 6.2560863e-06, Final residual = 2.4138207e-07, No Iterations 3
smoothSolver:  Solving for Uz, Initial residual = 3.5833283e-07, Final residual = 1.3368937e-08, No Iterations 3
GAMG:  Solving for p, Initial residual = 1.108389e-05, Final residual = 8.6532772e-08, No Iterations 3
time step continuity errors : sum local = 1.565602e-08, global = 1.4118417e-10, cumulative = -0.00027258075
ExecutionTime = 167.29798 s  ClockTime = 170 s

Time = 1336s

smoothSolver:  Solving for Ux, Initial residual = 1.1375061e-06, Final residual = 4.4324002e-08, No Iterations 3
smoothSolver:  Solving for Uy, Initial residual = 6.2038505e-06, Final residual = 2.3904239e-07, No Iterations 3
smoothSolver:  Solving for Uz, Initial residual = 3.5606667e-07, Final residual = 1.3286289e-08, No Iterations 3
GAMG:  Solving for p, Initial residual = 1.1008504e-05, Final residual = 8.5980877e-08, No Iterations 3
time step continuity errors : sum local = 1.5556168e-08, global = 1.3430343e-10, cumulative = -0.00027258062
ExecutionTime = 167.42057 s  ClockTime = 170 s

Time = 1337s

smoothSolver:  Solving for Ux, Initial residual = 1.1311954e-06, Final residual = 4.4156258e-08, No Iterations 3
smoothSolver:  Solving for Uy, Initial residual = 6.1514783e-06, Final residual = 2.3677746e-07, No Iterations 3
smoothSolver:  Solving for Uz, Initial residual = 3.5381649e-07, Final residual = 1.3208938e-08, No Iterations 3
GAMG:  Solving for p, Initial residual = 1.0937768e-05, Final residual = 8.5459852e-08, No Iterations 3
time step continuity errors : sum local = 1.5461901e-08, global = 1.2691882e-10, cumulative = -0.00027258049
ExecutionTime = 167.54456 s  ClockTime = 170 s

Time = 1338s

smoothSolver:  Solving for Ux, Initial residual = 1.1250133e-06, Final residual = 4.398779e-08, No Iterations 3
smoothSolver:  Solving for Uy, Initial residual = 6.099186e-06, Final residual = 2.3456658e-07, No Iterations 3
smoothSolver:  Solving for Uz, Initial residual = 3.517027e-07, Final residual = 1.3134524e-08, No Iterations 3
GAMG:  Solving for p, Initial residual = 1.0866467e-05, Final residual = 8.4951297e-08, No Iterations 3
time step continuity errors : sum local = 1.536989e-08, global = 1.1885046e-10, cumulative = -0.00027258037
ExecutionTime = 167.66867 s  ClockTime = 170 s

Time = 1339s

smoothSolver:  Solving for Ux, Initial residual = 1.1188546e-06, Final residual = 4.3806167e-08, No Iterations 3
smoothSolver:  Solving for Uy, Initial residual = 6.0477103e-06, Final residual = 2.3248801e-07, No Iterations 3
smoothSolver:  Solving for Uz, Initial residual = 3.496665e-07, Final residual = 1.306476e-08, No Iterations 3
GAMG:  Solving for p, Initial residual = 1.0795332e-05, Final residual = 8.442072e-08, No Iterations 3
time step continuity errors : sum local = 1.5273895e-08, global = 9.9934513e-11, cumulative = -0.00027258027
ExecutionTime = 167.79121 s  ClockTime = 170 s

Time = 1340s

smoothSolver:  Solving for Ux, Initial residual = 1.1129327e-06, Final residual = 4.3612926e-08, No Iterations 3
smoothSolver:  Solving for Uy, Initial residual = 5.9968894e-06, Final residual = 2.3057904e-07, No Iterations 3
smoothSolver:  Solving for Uz, Initial residual = 3.4773291e-07, Final residual = 1.2999899e-08, No Iterations 3
GAMG:  Solving for p, Initial residual = 1.0725377e-05, Final residual = 8.3898221e-08, No Iterations 3
time step continuity errors : sum local = 1.5179361e-08, global = 8.3349076e-11, cumulative = -0.00027258019
ExecutionTime = 167.91467 s  ClockTime = 170 s

Time = 1341s

smoothSolver:  Solving for Ux, Initial residual = 1.1070637e-06, Final residual = 4.3408352e-08, No Iterations 3
smoothSolver:  Solving for Uy, Initial residual = 5.948389e-06, Final residual = 2.2888727e-07, No Iterations 3
smoothSolver:  Solving for Uz, Initial residual = 3.4591095e-07, Final residual = 1.2942194e-08, No Iterations 3
GAMG:  Solving for p, Initial residual = 1.0656619e-05, Final residual = 8.3369661e-08, No Iterations 3
time step continuity errors : sum local = 1.508373e-08, global = 6.272517e-11, cumulative = -0.00027258013
ExecutionTime = 168.03929 s  ClockTime = 171 s

Time = 1342s

smoothSolver:  Solving for Ux, Initial residual = 1.101132e-06, Final residual = 4.3202063e-08, No Iterations 3
smoothSolver:  Solving for Uy, Initial residual = 5.9021895e-06, Final residual = 2.2742239e-07, No Iterations 3
smoothSolver:  Solving for Uz, Initial residual = 3.4411565e-07, Final residual = 1.2889113e-08, No Iterations 3
GAMG:  Solving for p, Initial residual = 1.0588727e-05, Final residual = 8.2848823e-08, No Iterations 3
time step continuity errors : sum local = 1.4989497e-08, global = 3.9611116e-11, cumulative = -0.00027258009
ExecutionTime = 168.16339 s  ClockTime = 171 s

Time = 1343s

smoothSolver:  Solving for Ux, Initial residual = 1.0951782e-06, Final residual = 4.2983884e-08, No Iterations 3
smoothSolver:  Solving for Uy, Initial residual = 5.8573009e-06, Final residual = 2.2613703e-07, No Iterations 3
smoothSolver:  Solving for Uz, Initial residual = 3.423507e-07, Final residual = 1.2841091e-08, No Iterations 3
GAMG:  Solving for p, Initial residual = 1.0522121e-05, Final residual = 8.2351932e-08, No Iterations 3
time step continuity errors : sum local = 1.4899596e-08, global = 1.5657206e-11, cumulative = -0.00027258007
ExecutionTime = 168.28635 s  ClockTime = 171 s

Time = 1344s

smoothSolver:  Solving for Ux, Initial residual = 1.0894287e-06, Final residual = 4.2746838e-08, No Iterations 3
smoothSolver:  Solving for Uy, Initial residual = 5.8149188e-06, Final residual = 2.2499154e-07, No Iterations 3
smoothSolver:  Solving for Uz, Initial residual = 3.4065385e-07, Final residual = 1.2796473e-08, No Iterations 3
GAMG:  Solving for p, Initial residual = 1.0456562e-05, Final residual = 8.1899131e-08, No Iterations 3
time step continuity errors : sum local = 1.4817672e-08, global = -7.9796702e-12, cumulative = -0.00027258008
ExecutionTime = 168.41285 s  ClockTime = 171 s

Time = 1345s

smoothSolver:  Solving for Ux, Initial residual = 1.0837553e-06, Final residual = 4.2500007e-08, No Iterations 3
smoothSolver:  Solving for Uy, Initial residual = 5.7750844e-06, Final residual = 2.2404562e-07, No Iterations 3
smoothSolver:  Solving for Uz, Initial residual = 3.3901764e-07, Final residual = 1.2752733e-08, No Iterations 3
GAMG:  Solving for p, Initial residual = 1.0391124e-05, Final residual = 8.1482399e-08, No Iterations 3
time step continuity errors : sum local = 1.4742274e-08, global = -2.9118197e-11, cumulative = -0.00027258011
ExecutionTime = 168.53735 s  ClockTime = 171 s

Time = 1346s

smoothSolver:  Solving for Ux, Initial residual = 1.0777616e-06, Final residual = 4.225224e-08, No Iterations 3
smoothSolver:  Solving for Uy, Initial residual = 5.7375429e-06, Final residual = 2.2318545e-07, No Iterations 3
smoothSolver:  Solving for Uz, Initial residual = 3.3743766e-07, Final residual = 1.2706497e-08, No Iterations 3
GAMG:  Solving for p, Initial residual = 1.0327102e-05, Final residual = 8.1099771e-08, No Iterations 3
time step continuity errors : sum local = 1.4673046e-08, global = -4.6848507e-11, cumulative = -0.00027258016
ExecutionTime = 168.66174 s  ClockTime = 171 s

Time = 1347s

smoothSolver:  Solving for Ux, Initial residual = 1.0718956e-06, Final residual = 4.199448e-08, No Iterations 3
smoothSolver:  Solving for Uy, Initial residual = 5.7032584e-06, Final residual = 2.2245961e-07, No Iterations 3
smoothSolver:  Solving for Uz, Initial residual = 3.3594592e-07, Final residual = 1.2656242e-08, No Iterations 3
GAMG:  Solving for p, Initial residual = 1.0264515e-05, Final residual = 8.0742562e-08, No Iterations 3
time step continuity errors : sum local = 1.4608418e-08, global = -6.0178482e-11, cumulative = -0.00027258022
ExecutionTime = 168.7863 s  ClockTime = 171 s

Time = 1348s

smoothSolver:  Solving for Ux, Initial residual = 1.0658985e-06, Final residual = 4.1743255e-08, No Iterations 3
smoothSolver:  Solving for Uy, Initial residual = 5.6708796e-06, Final residual = 2.2180317e-07, No Iterations 3
smoothSolver:  Solving for Uz, Initial residual = 3.3452183e-07, Final residual = 1.2603357e-08, No Iterations 3
GAMG:  Solving for p, Initial residual = 1.0203441e-05, Final residual = 8.0386269e-08, No Iterations 3
time step continuity errors : sum local = 1.4543955e-08, global = -6.8452143e-11, cumulative = -0.00027258028
ExecutionTime = 168.91034 s  ClockTime = 171 s

Time = 1349s

smoothSolver:  Solving for Ux, Initial residual = 1.059949e-06, Final residual = 4.1474962e-08, No Iterations 3
smoothSolver:  Solving for Uy, Initial residual = 5.6400483e-06, Final residual = 2.2119596e-07, No Iterations 3
smoothSolver:  Solving for Uz, Initial residual = 3.3305778e-07, Final residual = 1.2546162e-08, No Iterations 3
GAMG:  Solving for p, Initial residual = 1.0141473e-05, Final residual = 8.0062886e-08, No Iterations 3
time step continuity errors : sum local = 1.4485446e-08, global = -7.1384491e-11, cumulative = -0.00027258036
ExecutionTime = 169.03417 s  ClockTime = 172 s

Time = 1350s

smoothSolver:  Solving for Ux, Initial residual = 1.053933e-06, Final residual = 4.119664e-08, No Iterations 3
smoothSolver:  Solving for Uy, Initial residual = 5.6111328e-06, Final residual = 2.2060698e-07, No Iterations 3
smoothSolver:  Solving for Uz, Initial residual = 3.3152739e-07, Final residual = 1.2485082e-08, No Iterations 3
GAMG:  Solving for p, Initial residual = 1.0079033e-05, Final residual = 7.9735243e-08, No Iterations 3
time step continuity errors : sum local = 1.4426166e-08, global = -6.9059097e-11, cumulative = -0.00027258043
ExecutionTime = 169.15717 s  ClockTime = 172 s

Time = 1351s

smoothSolver:  Solving for Ux, Initial residual = 1.0478886e-06, Final residual = 4.0899089e-08, No Iterations 3
smoothSolver:  Solving for Uy, Initial residual = 5.5845645e-06, Final residual = 2.2002792e-07, No Iterations 3
smoothSolver:  Solving for Uz, Initial residual = 3.2987258e-07, Final residual = 1.2417293e-08, No Iterations 3
GAMG:  Solving for p, Initial residual = 1.0014794e-05, Final residual = 7.9387553e-08, No Iterations 3
time step continuity errors : sum local = 1.436326e-08, global = -6.1899767e-11, cumulative = -0.00027258049
ExecutionTime = 169.28119 s  ClockTime = 172 s

Time = 1352s

smoothSolver:  Solving for Ux, Initial residual = 1.0418382e-06, Final residual = 4.0594735e-08, No Iterations 3
smoothSolver:  Solving for Uy, Initial residual = 5.5595283e-06, Final residual = 2.193709e-07, No Iterations 3
smoothSolver:  Solving for Uz, Initial residual = 3.2816365e-07, Final residual = 1.2342271e-08, No Iterations 3
GAMG:  Solving for p, Initial residual = 9.9503908e-06, Final residual = 7.9012688e-08, No Iterations 3
time step continuity errors : sum local = 1.4295436e-08, global = -5.06283e-11, cumulative = -0.00027258054
ExecutionTime = 169.40342 s  ClockTime = 172 s


SIMPLE solution converged in 1352 iterations

End

Finalising parallel run
