/*---------------------------------------------------------------------------*\
  =========                 |
  \\      /  F ield         | OpenFOAM: The Open Source CFD Toolbox
   \\    /   O peration     | Website:  https://openfoam.org
    \\  /    A nd           | Version:  11
     \\/     M anipulation  |
\*---------------------------------------------------------------------------*/
Build  : 11-e1fc8c682ae6
Exec   : foamRun -solver incompressibleFluid -parallel
Date   : Feb 08 2026
Time   : 18:39:43
Host   : "ip-172-31-18-192"
PID    : 129456
I/O    : uncollated
Case   : /home/ubuntu/cases/bifurcation_angle45_750_ascii/Re200
nProcs : 16
Slaves : 
15
(
"ip-172-31-18-192.129457"
"ip-172-31-18-192.129458"
"ip-172-31-18-192.129459"
"ip-172-31-18-192.129460"
"ip-172-31-18-192.129461"
"ip-172-31-18-192.129462"
"ip-172-31-18-192.129463"
"ip-172-31-18-192.129464"
"ip-172-31-18-192.129465"
"ip-172-31-18-192.129466"
"ip-172-31-18-192.129467"
"ip-172-31-18-192.129468"
"ip-172-31-18-192.129469"
"ip-172-31-18-192.129470"
"ip-172-31-18-192.129471"
)

Pstream initialised with:
    floatTransfer      : false
    nProcsSimpleSum    : 0
    commsType          : nonBlocking
    polling iterations : 0
sigFpe : Enabling floating point exception trapping (FOAM_SIGFPE).
fileModificationChecking : Monitoring run-time modified files using timeStampMaster (fileModificationSkew 10)
allowSystemOperations : Allowing user-supplied system call operations

// * * * * * * * * * * * * * * * * * * * * * * * * * * * * * * * * * * * * * //
Create time

Create mesh for time = 0

Selecting solver incompressibleFluid
Selecting viscosity model Newtonian
Selecting turbulence model type laminar
Selecting laminar stress model Stokes
No MRF models present


SIMPLE: Convergence criteria found
        p: tolerance 1e-05
        U: tolerance 1e-05


SIMPLE: Operating solver in steady-state mode with 1 outer corrector
SIMPLE: Operating solver in SIMPLE mode



Starting time loop

wallShearStress wallShearStress:
    processing wall patches: 
        wall-fluid_domain

Time = 1s

smoothSolver:  Solving for Ux, Initial residual = 1, Final residual = 0.050762935, No Iterations 1
smoothSolver:  Solving for Uy, Initial residual = 1, Final residual = 0.047262497, No Iterations 1
smoothSolver:  Solving for Uz, Initial residual = 1, Final residual = 0.020223095, No Iterations 1
GAMG:  Solving for p, Initial residual = 1, Final residual = 0.0086351641, No Iterations 10
time step continuity errors : sum local = 0.00014053061, global = -2.0977498e-06, cumulative = -2.0977498e-06
ExecutionTime = 0.663271 s  ClockTime = 1 s

Time = 2s

smoothSolver:  Solving for Ux, Initial residual = 0.24963645, Final residual = 0.016277557, No Iterations 2
smoothSolver:  Solving for Uy, Initial residual = 0.32522697, Final residual = 0.014814098, No Iterations 2
smoothSolver:  Solving for Uz, Initial residual = 0.28633288, Final residual = 0.023586673, No Iterations 2
GAMG:  Solving for p, Initial residual = 0.29690249, Final residual = 0.0021415175, No Iterations 6
time step continuity errors : sum local = 0.0036096975, global = -0.00010358283, cumulative = -0.00010568058
ExecutionTime = 0.852875 s  ClockTime = 1 s

Time = 3s

smoothSolver:  Solving for Ux, Initial residual = 0.22863944, Final residual = 0.0072498951, No Iterations 3
smoothSolver:  Solving for Uy, Initial residual = 0.13226674, Final residual = 0.0078456072, No Iterations 2
smoothSolver:  Solving for Uz, Initial residual = 0.55376481, Final residual = 0.019649333, No Iterations 3
GAMG:  Solving for p, Initial residual = 0.14362061, Final residual = 0.00090327177, No Iterations 3
time step continuity errors : sum local = 0.0063790545, global = 0.00012510516, cumulative = 1.9424578e-05
ExecutionTime = 1.015665 s  ClockTime = 1 s

Time = 4s

smoothSolver:  Solving for Ux, Initial residual = 0.14605701, Final residual = 0.0048799464, No Iterations 3
smoothSolver:  Solving for Uy, Initial residual = 0.070319177, Final residual = 0.004202768, No Iterations 2
smoothSolver:  Solving for Uz, Initial residual = 0.38649465, Final residual = 0.013735009, No Iterations 3
GAMG:  Solving for p, Initial residual = 0.098796711, Final residual = 0.00087251588, No Iterations 5
time step continuity errors : sum local = 0.0061288344, global = 1.3378481e-05, cumulative = 3.280306e-05
ExecutionTime = 1.197845 s  ClockTime = 1 s

Time = 5s

smoothSolver:  Solving for Ux, Initial residual = 0.078646754, Final residual = 0.0074876151, No Iterations 2
smoothSolver:  Solving for Uy, Initial residual = 0.18682446, Final residual = 0.012572224, No Iterations 2
smoothSolver:  Solving for Uz, Initial residual = 0.14699411, Final residual = 0.0052371455, No Iterations 3
GAMG:  Solving for p, Initial residual = 0.086656899, Final residual = 0.00074577182, No Iterations 6
time step continuity errors : sum local = 0.0026160575, global = 9.8579887e-05, cumulative = 0.00013138295
ExecutionTime = 1.388832 s  ClockTime = 1 s

Time = 6s

smoothSolver:  Solving for Ux, Initial residual = 0.083914875, Final residual = 0.0069123573, No Iterations 2
smoothSolver:  Solving for Uy, Initial residual = 0.40376835, Final residual = 0.026473758, No Iterations 2
smoothSolver:  Solving for Uz, Initial residual = 0.073337813, Final residual = 0.002549915, No Iterations 3
GAMG:  Solving for p, Initial residual = 0.41385092, Final residual = 0.0041138482, No Iterations 4
time step continuity errors : sum local = 0.0084413825, global = 0.00019826354, cumulative = 0.00032964649
ExecutionTime = 1.560218 s  ClockTime = 1 s

Time = 7s

smoothSolver:  Solving for Ux, Initial residual = 0.12733105, Final residual = 0.01205817, No Iterations 2
smoothSolver:  Solving for Uy, Initial residual = 0.24999349, Final residual = 0.015771975, No Iterations 2
smoothSolver:  Solving for Uz, Initial residual = 0.2210764, Final residual = 0.0078498879, No Iterations 3
GAMG:  Solving for p, Initial residual = 0.25239547, Final residual = 0.0010625211, No Iterations 4
time step continuity errors : sum local = 0.0040109478, global = 6.9541425e-06, cumulative = 0.00033660063
ExecutionTime = 1.730959 s  ClockTime = 2 s

Time = 8s

smoothSolver:  Solving for Ux, Initial residual = 0.10931851, Final residual = 0.0034563829, No Iterations 3
smoothSolver:  Solving for Uy, Initial residual = 0.1347233, Final residual = 0.0090504088, No Iterations 2
smoothSolver:  Solving for Uz, Initial residual = 0.23323504, Final residual = 0.008282026, No Iterations 3
GAMG:  Solving for p, Initial residual = 0.19614445, Final residual = 0.001024413, No Iterations 5
time step continuity errors : sum local = 0.0032606775, global = -1.4530919e-05, cumulative = 0.00032206971
ExecutionTime = 1.911588 s  ClockTime = 2 s

Time = 9s

smoothSolver:  Solving for Ux, Initial residual = 0.062668336, Final residual = 0.0057380351, No Iterations 2
smoothSolver:  Solving for Uy, Initial residual = 0.25447358, Final residual = 0.019820014, No Iterations 2
smoothSolver:  Solving for Uz, Initial residual = 0.082326476, Final residual = 0.0028749727, No Iterations 3
GAMG:  Solving for p, Initial residual = 0.20419114, Final residual = 0.00095232338, No Iterations 6
time step continuity errors : sum local = 0.0011832554, global = -2.6408752e-05, cumulative = 0.00029566096
ExecutionTime = 2.101816 s  ClockTime = 2 s

Time = 10s

smoothSolver:  Solving for Ux, Initial residual = 0.070376235, Final residual = 0.0062577285, No Iterations 2
smoothSolver:  Solving for Uy, Initial residual = 0.39628097, Final residual = 0.028379077, No Iterations 2
smoothSolver:  Solving for Uz, Initial residual = 0.074879758, Final residual = 0.0026614765, No Iterations 3
GAMG:  Solving for p, Initial residual = 0.29583208, Final residual = 0.0026672033, No Iterations 4
time step continuity errors : sum local = 0.0033395795, global = -4.9525489e-05, cumulative = 0.00024613547
ExecutionTime = 2.272468 s  ClockTime = 2 s

Time = 11s

smoothSolver:  Solving for Ux, Initial residual = 0.070454369, Final residual = 0.0067902252, No Iterations 2
smoothSolver:  Solving for Uy, Initial residual = 0.23149267, Final residual = 0.015343404, No Iterations 2
smoothSolver:  Solving for Uz, Initial residual = 0.116746, Final residual = 0.0041626136, No Iterations 3
GAMG:  Solving for p, Initial residual = 0.21239464, Final residual = 0.001438284, No Iterations 4
time step continuity errors : sum local = 0.0026717653, global = 4.9779845e-06, cumulative = 0.00025111346
ExecutionTime = 2.44335 s  ClockTime = 2 s

Time = 12s

smoothSolver:  Solving for Ux, Initial residual = 0.04496523, Final residual = 0.0014518534, No Iterations 3
smoothSolver:  Solving for Uy, Initial residual = 0.15061266, Final residual = 0.011800908, No Iterations 2
smoothSolver:  Solving for Uz, Initial residual = 0.079728684, Final residual = 0.0028440207, No Iterations 3
GAMG:  Solving for p, Initial residual = 0.16644657, Final residual = 0.0011723368, No Iterations 5
time step continuity errors : sum local = 0.0016362189, global = 1.0930796e-06, cumulative = 0.00025220654
ExecutionTime = 2.626757 s  ClockTime = 3 s

Time = 13s

smoothSolver:  Solving for Ux, Initial residual = 0.025145551, Final residual = 0.0022187749, No Iterations 2
smoothSolver:  Solving for Uy, Initial residual = 0.31001414, Final residual = 0.02566556, No Iterations 2
smoothSolver:  Solving for Uz, Initial residual = 0.018078428, Final residual = 0.00058253621, No Iterations 3
GAMG:  Solving for p, Initial residual = 0.2717971, Final residual = 0.0011029849, No Iterations 6
time step continuity errors : sum local = 0.00050537173, global = 1.2350148e-05, cumulative = 0.00026455668
ExecutionTime = 2.816336 s  ClockTime = 3 s

Time = 14s

smoothSolver:  Solving for Ux, Initial residual = 0.033052512, Final residual = 0.0030382582, No Iterations 2
smoothSolver:  Solving for Uy, Initial residual = 0.33198562, Final residual = 0.025270984, No Iterations 2
smoothSolver:  Solving for Uz, Initial residual = 0.038603916, Final residual = 0.0013628826, No Iterations 3
GAMG:  Solving for p, Initial residual = 0.28536552, Final residual = 0.0019601349, No Iterations 4
time step continuity errors : sum local = 0.0013571698, global = 1.4246773e-05, cumulative = 0.00027880346
ExecutionTime = 2.985704 s  ClockTime = 3 s

Time = 15s

smoothSolver:  Solving for Ux, Initial residual = 0.0330185, Final residual = 0.0032079228, No Iterations 2
smoothSolver:  Solving for Uy, Initial residual = 0.18192786, Final residual = 0.012779894, No Iterations 2
smoothSolver:  Solving for Uz, Initial residual = 0.054341288, Final residual = 0.0019229987, No Iterations 3
GAMG:  Solving for p, Initial residual = 0.21483465, Final residual = 0.001766933, No Iterations 4
time step continuity errors : sum local = 0.001503863, global = -9.254976e-06, cumulative = 0.00026954848
ExecutionTime = 3.155915 s  ClockTime = 3 s

Time = 16s

smoothSolver:  Solving for Ux, Initial residual = 0.022047589, Final residual = 0.00070091867, No Iterations 3
smoothSolver:  Solving for Uy, Initial residual = 0.14827741, Final residual = 0.012641749, No Iterations 2
smoothSolver:  Solving for Uz, Initial residual = 0.034670347, Final residual = 0.0012204737, No Iterations 3
GAMG:  Solving for p, Initial residual = 0.17246756, Final residual = 0.0014130815, No Iterations 5
time step continuity errors : sum local = 0.00078859297, global = 3.0040099e-07, cumulative = 0.00026984888
ExecutionTime = 3.339986 s  ClockTime = 3 s

Time = 17s

smoothSolver:  Solving for Ux, Initial residual = 0.014165226, Final residual = 0.0012204845, No Iterations 2
smoothSolver:  Solving for Uy, Initial residual = 0.27560781, Final residual = 0.023206982, No Iterations 2
smoothSolver:  Solving for Uz, Initial residual = 0.0077511197, Final residual = 0.00071217576, No Iterations 2
GAMG:  Solving for p, Initial residual = 0.42904749, Final residual = 0.0035152993, No Iterations 5
time step continuity errors : sum local = 0.00054744111, global = 1.4652783e-07, cumulative = 0.00026999541
ExecutionTime = 3.527583 s  ClockTime = 3 s

Time = 18s

smoothSolver:  Solving for Ux, Initial residual = 0.018153564, Final residual = 0.0017351637, No Iterations 2
smoothSolver:  Solving for Uy, Initial residual = 0.24214562, Final residual = 0.018863735, No Iterations 2
smoothSolver:  Solving for Uz, Initial residual = 0.023067996, Final residual = 0.00083106202, No Iterations 3
GAMG:  Solving for p, Initial residual = 0.2199861, Final residual = 0.0012068967, No Iterations 4
time step continuity errors : sum local = 0.00053057585, global = -6.4931713e-06, cumulative = 0.00026350224
ExecutionTime = 3.703493 s  ClockTime = 4 s

Time = 19s

smoothSolver:  Solving for Ux, Initial residual = 0.015328952, Final residual = 0.00048594038, No Iterations 3
smoothSolver:  Solving for Uy, Initial residual = 0.13485422, Final residual = 0.010186099, No Iterations 2
smoothSolver:  Solving for Uz, Initial residual = 0.024764743, Final residual = 0.00089159933, No Iterations 3
GAMG:  Solving for p, Initial residual = 0.17212764, Final residual = 0.0007086866, No Iterations 5
time step continuity errors : sum local = 0.00032813275, global = 8.2627836e-07, cumulative = 0.00026432852
ExecutionTime = 3.883844 s  ClockTime = 4 s

Time = 20s

smoothSolver:  Solving for Ux, Initial residual = 0.009833396, Final residual = 0.00032073555, No Iterations 3
smoothSolver:  Solving for Uy, Initial residual = 0.13480388, Final residual = 0.012172339, No Iterations 2
smoothSolver:  Solving for Uz, Initial residual = 0.012739191, Final residual = 0.00045829888, No Iterations 3
GAMG:  Solving for p, Initial residual = 0.12790387, Final residual = 0.0012155675, No Iterations 5
time step continuity errors : sum local = 0.00036272798, global = -1.0613251e-06, cumulative = 0.00026326719
ExecutionTime = 4.065469 s  ClockTime = 4 s

Time = 21s

smoothSolver:  Solving for Ux, Initial residual = 0.0075177155, Final residual = 0.00066909699, No Iterations 2
smoothSolver:  Solving for Uy, Initial residual = 0.18797456, Final residual = 0.016203041, No Iterations 2
smoothSolver:  Solving for Uz, Initial residual = 0.0047512281, Final residual = 0.0004558526, No Iterations 2
GAMG:  Solving for p, Initial residual = 0.33140196, Final residual = 0.0020046659, No Iterations 5
time step continuity errors : sum local = 0.00022067848, global = 2.3711163e-08, cumulative = 0.0002632909
ExecutionTime = 4.246359 s  ClockTime = 4 s

Time = 22s

smoothSolver:  Solving for Ux, Initial residual = 0.0083692559, Final residual = 0.00078691727, No Iterations 2
smoothSolver:  Solving for Uy, Initial residual = 0.14544889, Final residual = 0.011673338, No Iterations 2
smoothSolver:  Solving for Uz, Initial residual = 0.011070142, Final residual = 0.0003840454, No Iterations 3
GAMG:  Solving for p, Initial residual = 0.21434974, Final residual = 0.001288727, No Iterations 4
time step continuity errors : sum local = 0.00028199429, global = -2.8049773e-06, cumulative = 0.00026048593
ExecutionTime = 4.417971 s  ClockTime = 4 s

Time = 23s

smoothSolver:  Solving for Ux, Initial residual = 0.00657967, Final residual = 0.00064441381, No Iterations 2
smoothSolver:  Solving for Uy, Initial residual = 0.082636554, Final residual = 0.0066548655, No Iterations 2
smoothSolver:  Solving for Uz, Initial residual = 0.010538081, Final residual = 0.00036530264, No Iterations 3
GAMG:  Solving for p, Initial residual = 0.16828738, Final residual = 0.00082368739, No Iterations 5
time step continuity errors : sum local = 0.00017127908, global = -4.3615172e-09, cumulative = 0.00026048156
ExecutionTime = 4.597521 s  ClockTime = 5 s

Time = 24s

smoothSolver:  Solving for Ux, Initial residual = 0.0044712601, Final residual = 0.00043059156, No Iterations 2
smoothSolver:  Solving for Uy, Initial residual = 0.093839594, Final residual = 0.0086152424, No Iterations 2
smoothSolver:  Solving for Uz, Initial residual = 0.0043993625, Final residual = 0.00014255602, No Iterations 3
GAMG:  Solving for p, Initial residual = 0.14173957, Final residual = 0.0013805689, No Iterations 5
time step continuity errors : sum local = 0.00016346413, global = 3.6738231e-07, cumulative = 0.00026084895
ExecutionTime = 4.7769 s  ClockTime = 5 s

Time = 25s

smoothSolver:  Solving for Ux, Initial residual = 0.0047859098, Final residual = 0.00046376598, No Iterations 2
smoothSolver:  Solving for Uy, Initial residual = 0.11017646, Final residual = 0.0096650782, No Iterations 2
smoothSolver:  Solving for Uz, Initial residual = 0.0045158908, Final residual = 0.00015684515, No Iterations 3
GAMG:  Solving for p, Initial residual = 0.13223371, Final residual = 0.00058847915, No Iterations 5
time step continuity errors : sum local = 8.6941828e-05, global = -4.3371565e-07, cumulative = 0.00026041523
ExecutionTime = 4.956936 s  ClockTime = 5 s

Time = 26s

smoothSolver:  Solving for Ux, Initial residual = 0.0047820249, Final residual = 0.00015203551, No Iterations 3
smoothSolver:  Solving for Uy, Initial residual = 0.080641871, Final residual = 0.0068575845, No Iterations 2
smoothSolver:  Solving for Uz, Initial residual = 0.0064760115, Final residual = 0.0002340645, No Iterations 3
GAMG:  Solving for p, Initial residual = 0.11591344, Final residual = 0.00090146205, No Iterations 4
time step continuity errors : sum local = 0.00017071537, global = 5.1913963e-07, cumulative = 0.00026093437
ExecutionTime = 5.127897 s  ClockTime = 5 s

Time = 27s

smoothSolver:  Solving for Ux, Initial residual = 0.0037890471, Final residual = 0.00012702711, No Iterations 3
smoothSolver:  Solving for Uy, Initial residual = 0.052454705, Final residual = 0.0048386667, No Iterations 2
smoothSolver:  Solving for Uz, Initial residual = 0.0055139695, Final residual = 0.00019787338, No Iterations 3
GAMG:  Solving for p, Initial residual = 0.083453137, Final residual = 0.00049554185, No Iterations 5
time step continuity errors : sum local = 8.7260229e-05, global = -3.0327912e-07, cumulative = 0.00026063109
ExecutionTime = 5.309253 s  ClockTime = 5 s

Time = 28s

smoothSolver:  Solving for Ux, Initial residual = 0.0032286586, Final residual = 0.00010417462, No Iterations 3
smoothSolver:  Solving for Uy, Initial residual = 0.059620077, Final residual = 0.0056675455, No Iterations 2
smoothSolver:  Solving for Uz, Initial residual = 0.0034384067, Final residual = 0.00011768148, No Iterations 3
GAMG:  Solving for p, Initial residual = 0.062956736, Final residual = 0.00055394594, No Iterations 5
time step continuity errors : sum local = 7.2941586e-05, global = -3.0847167e-07, cumulative = 0.00026032262
ExecutionTime = 5.49076 s  ClockTime = 5 s

Time = 29s

smoothSolver:  Solving for Ux, Initial residual = 0.0028610092, Final residual = 0.00027808606, No Iterations 2
smoothSolver:  Solving for Uy, Initial residual = 0.060440343, Final residual = 0.0055020016, No Iterations 2
smoothSolver:  Solving for Uz, Initial residual = 0.0026705165, Final residual = 8.5434141e-05, No Iterations 3
GAMG:  Solving for p, Initial residual = 0.11816233, Final residual = 0.00098929411, No Iterations 4
time step continuity errors : sum local = 9.2194402e-05, global = 7.8515325e-07, cumulative = 0.00026110777
ExecutionTime = 5.661518 s  ClockTime = 6 s

Time = 30s

smoothSolver:  Solving for Ux, Initial residual = 0.0024365089, Final residual = 0.00023738863, No Iterations 2
smoothSolver:  Solving for Uy, Initial residual = 0.043987828, Final residual = 0.0040137641, No Iterations 2
smoothSolver:  Solving for Uz, Initial residual = 0.0028661332, Final residual = 9.3345865e-05, No Iterations 3
GAMG:  Solving for p, Initial residual = 0.10929402, Final residual = 0.00086044182, No Iterations 4
time step continuity errors : sum local = 8.6002325e-05, global = -3.1895841e-07, cumulative = 0.00026078882
ExecutionTime = 5.832876 s  ClockTime = 6 s

Time = 31s

smoothSolver:  Solving for Ux, Initial residual = 0.0021919175, Final residual = 6.9479384e-05, No Iterations 3
smoothSolver:  Solving for Uy, Initial residual = 0.035052265, Final residual = 0.003454429, No Iterations 2
smoothSolver:  Solving for Uz, Initial residual = 0.0024695494, Final residual = 8.0375523e-05, No Iterations 3
GAMG:  Solving for p, Initial residual = 0.079662352, Final residual = 0.00045682249, No Iterations 5
time step continuity errors : sum local = 4.0988098e-05, global = 2.0995738e-08, cumulative = 0.00026080981
ExecutionTime = 6.015069 s  ClockTime = 6 s

Time = 32s

smoothSolver:  Solving for Ux, Initial residual = 0.0023489703, Final residual = 7.6358798e-05, No Iterations 3
smoothSolver:  Solving for Uy, Initial residual = 0.039204135, Final residual = 0.0038588723, No Iterations 2
smoothSolver:  Solving for Uz, Initial residual = 0.0026077377, Final residual = 8.7996749e-05, No Iterations 3
GAMG:  Solving for p, Initial residual = 0.045639277, Final residual = 0.00027484235, No Iterations 5
time step continuity errors : sum local = 3.0325647e-05, global = -1.234192e-08, cumulative = 0.00026079747
ExecutionTime = 6.197331 s  ClockTime = 6 s

Time = 33s

smoothSolver:  Solving for Ux, Initial residual = 0.0024022603, Final residual = 7.9377206e-05, No Iterations 3
smoothSolver:  Solving for Uy, Initial residual = 0.037478967, Final residual = 0.0036440767, No Iterations 2
smoothSolver:  Solving for Uz, Initial residual = 0.0029958645, Final residual = 0.00010386875, No Iterations 3
GAMG:  Solving for p, Initial residual = 0.046979203, Final residual = 0.00030731661, No Iterations 4
time step continuity errors : sum local = 3.9070363e-05, global = -3.4257155e-07, cumulative = 0.0002604549
ExecutionTime = 6.370959 s  ClockTime = 6 s

Time = 34s

smoothSolver:  Solving for Ux, Initial residual = 0.0022301893, Final residual = 7.5395235e-05, No Iterations 3
smoothSolver:  Solving for Uy, Initial residual = 0.030250514, Final residual = 0.00095318934, No Iterations 3
smoothSolver:  Solving for Uz, Initial residual = 0.0030404506, Final residual = 0.00010600749, No Iterations 3
GAMG:  Solving for p, Initial residual = 0.041186163, Final residual = 0.00034928042, No Iterations 4
time step continuity errors : sum local = 4.5796073e-05, global = 4.0789321e-07, cumulative = 0.00026086279
ExecutionTime = 6.545987 s  ClockTime = 7 s

Time = 35s

smoothSolver:  Solving for Ux, Initial residual = 0.0020695073, Final residual = 7.0397657e-05, No Iterations 3
smoothSolver:  Solving for Uy, Initial residual = 0.027040678, Final residual = 0.00088641407, No Iterations 3
smoothSolver:  Solving for Uz, Initial residual = 0.0027780484, Final residual = 9.599208e-05, No Iterations 3
GAMG:  Solving for p, Initial residual = 0.030829168, Final residual = 0.00016311324, No Iterations 5
time step continuity errors : sum local = 2.0369004e-05, global = -9.0408122e-08, cumulative = 0.00026077238
ExecutionTime = 6.730051 s  ClockTime = 7 s

Time = 36s

smoothSolver:  Solving for Ux, Initial residual = 0.0019717119, Final residual = 6.5930617e-05, No Iterations 3
smoothSolver:  Solving for Uy, Initial residual = 0.027210487, Final residual = 0.000875988, No Iterations 3
smoothSolver:  Solving for Uz, Initial residual = 0.0024622567, Final residual = 8.3858868e-05, No Iterations 3
GAMG:  Solving for p, Initial residual = 0.031777147, Final residual = 0.00029557878, No Iterations 4
time step continuity errors : sum local = 3.4003447e-05, global = 4.878599e-07, cumulative = 0.00026126024
ExecutionTime = 6.906374 s  ClockTime = 7 s

Time = 37s

smoothSolver:  Solving for Ux, Initial residual = 0.0018672462, Final residual = 6.1955798e-05, No Iterations 3
smoothSolver:  Solving for Uy, Initial residual = 0.02527208, Final residual = 0.00081269828, No Iterations 3
smoothSolver:  Solving for Uz, Initial residual = 0.0022889035, Final residual = 7.7283328e-05, No Iterations 3
GAMG:  Solving for p, Initial residual = 0.037031704, Final residual = 0.00020591609, No Iterations 4
time step continuity errors : sum local = 2.2418513e-05, global = 2.4121517e-07, cumulative = 0.00026150146
ExecutionTime = 7.082267 s  ClockTime = 7 s

Time = 38s

smoothSolver:  Solving for Ux, Initial residual = 0.0017895716, Final residual = 5.9906658e-05, No Iterations 3
smoothSolver:  Solving for Uy, Initial residual = 0.022871145, Final residual = 0.00075643591, No Iterations 3
smoothSolver:  Solving for Uz, Initial residual = 0.0022393289, Final residual = 7.5700655e-05, No Iterations 3
GAMG:  Solving for p, Initial residual = 0.033364079, Final residual = 0.00021902953, No Iterations 4
time step continuity errors : sum local = 2.3797058e-05, global = -9.8204861e-08, cumulative = 0.00026140325
ExecutionTime = 7.25667 s  ClockTime = 7 s

Time = 39s

smoothSolver:  Solving for Ux, Initial residual = 0.001776252, Final residual = 6.0010016e-05, No Iterations 3
smoothSolver:  Solving for Uy, Initial residual = 0.022452018, Final residual = 0.00075189911, No Iterations 3
smoothSolver:  Solving for Uz, Initial residual = 0.002261564, Final residual = 7.7013445e-05, No Iterations 3
GAMG:  Solving for p, Initial residual = 0.026598469, Final residual = 0.00020329797, No Iterations 4
time step continuity errors : sum local = 2.2872097e-05, global = -1.5902898e-07, cumulative = 0.00026124422
ExecutionTime = 7.430369 s  ClockTime = 7 s

Time = 40s

smoothSolver:  Solving for Ux, Initial residual = 0.0017745475, Final residual = 6.029851e-05, No Iterations 3
smoothSolver:  Solving for Uy, Initial residual = 0.022361479, Final residual = 0.00074620909, No Iterations 3
smoothSolver:  Solving for Uz, Initial residual = 0.0023136359, Final residual = 7.9482797e-05, No Iterations 3
GAMG:  Solving for p, Initial residual = 0.024234974, Final residual = 0.00014334248, No Iterations 4
time step continuity errors : sum local = 1.6818521e-05, global = -8.0874097e-08, cumulative = 0.00026116335
ExecutionTime = 7.605457 s  ClockTime = 8 s

Time = 41s

smoothSolver:  Solving for Ux, Initial residual = 0.0017408809, Final residual = 5.9503363e-05, No Iterations 3
smoothSolver:  Solving for Uy, Initial residual = 0.021253278, Final residual = 0.00071310738, No Iterations 3
smoothSolver:  Solving for Uz, Initial residual = 0.002331426, Final residual = 8.0515512e-05, No Iterations 3
GAMG:  Solving for p, Initial residual = 0.023565997, Final residual = 0.00012477813, No Iterations 4
time step continuity errors : sum local = 1.500368e-05, global = 1.7632587e-07, cumulative = 0.00026133968
ExecutionTime = 7.780477 s  ClockTime = 8 s

Time = 42s

smoothSolver:  Solving for Ux, Initial residual = 0.0016921701, Final residual = 5.8049879e-05, No Iterations 3
smoothSolver:  Solving for Uy, Initial residual = 0.019994298, Final residual = 0.00067750405, No Iterations 3
smoothSolver:  Solving for Uz, Initial residual = 0.0022890475, Final residual = 7.9112395e-05, No Iterations 3
GAMG:  Solving for p, Initial residual = 0.022006342, Final residual = 0.00013848017, No Iterations 4
time step continuity errors : sum local = 1.6689495e-05, global = 1.2966824e-07, cumulative = 0.00026146934
ExecutionTime = 7.953443 s  ClockTime = 8 s

Time = 43s

smoothSolver:  Solving for Ux, Initial residual = 0.001648582, Final residual = 5.6474562e-05, No Iterations 3
smoothSolver:  Solving for Uy, Initial residual = 0.019262091, Final residual = 0.00065400731, No Iterations 3
smoothSolver:  Solving for Uz, Initial residual = 0.0022064358, Final residual = 7.608034e-05, No Iterations 3
GAMG:  Solving for p, Initial residual = 0.021117806, Final residual = 0.00013397967, No Iterations 4
time step continuity errors : sum local = 1.5932383e-05, global = 1.4274174e-07, cumulative = 0.00026161209
ExecutionTime = 8.130212 s  ClockTime = 8 s

Time = 44s

smoothSolver:  Solving for Ux, Initial residual = 0.0016114306, Final residual = 5.5042732e-05, No Iterations 3
smoothSolver:  Solving for Uy, Initial residual = 0.018722537, Final residual = 0.00063490714, No Iterations 3
smoothSolver:  Solving for Uz, Initial residual = 0.0021273312, Final residual = 7.3166429e-05, No Iterations 3
GAMG:  Solving for p, Initial residual = 0.021555619, Final residual = 0.00011849115, No Iterations 4
time step continuity errors : sum local = 1.3881208e-05, global = 9.7682227e-08, cumulative = 0.00026170977
ExecutionTime = 8.303536 s  ClockTime = 8 s

Time = 45s

smoothSolver:  Solving for Ux, Initial residual = 0.0015791704, Final residual = 5.3933276e-05, No Iterations 3
smoothSolver:  Solving for Uy, Initial residual = 0.018148074, Final residual = 0.00061749967, No Iterations 3
smoothSolver:  Solving for Uz, Initial residual = 0.002074886, Final residual = 7.1318212e-05, No Iterations 3
GAMG:  Solving for p, Initial residual = 0.021488867, Final residual = 0.00014571019, No Iterations 3
time step continuity errors : sum local = 1.6969434e-05, global = 1.6146124e-07, cumulative = 0.00026187123
ExecutionTime = 8.46715 s  ClockTime = 8 s

Time = 46s

smoothSolver:  Solving for Ux, Initial residual = 0.0015549122, Final residual = 5.3204312e-05, No Iterations 3
smoothSolver:  Solving for Uy, Initial residual = 0.017695014, Final residual = 0.00060482578, No Iterations 3
smoothSolver:  Solving for Uz, Initial residual = 0.0020454975, Final residual = 7.0412968e-05, No Iterations 3
GAMG:  Solving for p, Initial residual = 0.020508933, Final residual = 9.830644e-05, No Iterations 4
time step continuity errors : sum local = 1.149978e-05, global = -5.7077528e-08, cumulative = 0.00026181415
ExecutionTime = 8.640571 s  ClockTime = 9 s

Time = 47s

smoothSolver:  Solving for Ux, Initial residual = 0.0015369892, Final residual = 5.2692349e-05, No Iterations 3
smoothSolver:  Solving for Uy, Initial residual = 0.017388512, Final residual = 0.00059554909, No Iterations 3
smoothSolver:  Solving for Uz, Initial residual = 0.0020302943, Final residual = 7.0069886e-05, No Iterations 3
GAMG:  Solving for p, Initial residual = 0.01951776, Final residual = 9.2225892e-05, No Iterations 4
time step continuity errors : sum local = 1.0903939e-05, global = -5.6995499e-08, cumulative = 0.00026175716
ExecutionTime = 8.813044 s  ClockTime = 9 s

Time = 48s

smoothSolver:  Solving for Ux, Initial residual = 0.001518335, Final residual = 5.214406e-05, No Iterations 3
smoothSolver:  Solving for Uy, Initial residual = 0.017006597, Final residual = 0.00058332667, No Iterations 3
smoothSolver:  Solving for Uz, Initial residual = 0.0020164586, Final residual = 6.9771368e-05, No Iterations 3
GAMG:  Solving for p, Initial residual = 0.018923004, Final residual = 0.00014351271, No Iterations 3
time step continuity errors : sum local = 1.7147808e-05, global = -1.4437964e-09, cumulative = 0.00026175571
ExecutionTime = 8.978317 s  ClockTime = 9 s

Time = 49s

smoothSolver:  Solving for Ux, Initial residual = 0.001496431, Final residual = 5.1456561e-05, No Iterations 3
smoothSolver:  Solving for Uy, Initial residual = 0.016518609, Final residual = 0.00056772238, No Iterations 3
smoothSolver:  Solving for Uz, Initial residual = 0.0019925796, Final residual = 6.9046479e-05, No Iterations 3
GAMG:  Solving for p, Initial residual = 0.018469404, Final residual = 0.00016733773, No Iterations 3
time step continuity errors : sum local = 2.0106651e-05, global = 3.6171149e-07, cumulative = 0.00026211742
ExecutionTime = 9.142469 s  ClockTime = 9 s

Time = 50s

smoothSolver:  Solving for Ux, Initial residual = 0.0014756135, Final residual = 5.0773297e-05, No Iterations 3
smoothSolver:  Solving for Uy, Initial residual = 0.016059867, Final residual = 0.00055263299, No Iterations 3
smoothSolver:  Solving for Uz, Initial residual = 0.0019636898, Final residual = 6.8104058e-05, No Iterations 3
GAMG:  Solving for p, Initial residual = 0.018066163, Final residual = 0.00010431238, No Iterations 4
time step continuity errors : sum local = 1.2570041e-05, global = 1.3981303e-07, cumulative = 0.00026225724
ExecutionTime = 9.317102 s  ClockTime = 9 s

Time = 51s

smoothSolver:  Solving for Ux, Initial residual = 0.0014557428, Final residual = 5.0063309e-05, No Iterations 3
smoothSolver:  Solving for Uy, Initial residual = 0.015685283, Final residual = 0.00053987388, No Iterations 3
smoothSolver:  Solving for Uz, Initial residual = 0.0019275599, Final residual = 6.683961e-05, No Iterations 3
GAMG:  Solving for p, Initial residual = 0.017864051, Final residual = 0.00010231086, No Iterations 4
time step continuity errors : sum local = 1.2313373e-05, global = 1.2811141e-07, cumulative = 0.00026238535
ExecutionTime = 9.494618 s  ClockTime = 9 s

Time = 52s

smoothSolver:  Solving for Ux, Initial residual = 0.0014373523, Final residual = 4.9399638e-05, No Iterations 3
smoothSolver:  Solving for Uy, Initial residual = 0.015361031, Final residual = 0.00052887394, No Iterations 3
smoothSolver:  Solving for Uz, Initial residual = 0.001892293, Final residual = 6.5608269e-05, No Iterations 3
GAMG:  Solving for p, Initial residual = 0.017761651, Final residual = 9.5675034e-05, No Iterations 4
time step continuity errors : sum local = 1.1497633e-05, global = 1.2634163e-07, cumulative = 0.00026251169
ExecutionTime = 9.669224 s  ClockTime = 10 s

Time = 53s

smoothSolver:  Solving for Ux, Initial residual = 0.0014206056, Final residual = 4.8818934e-05, No Iterations 3
smoothSolver:  Solving for Uy, Initial residual = 0.015062374, Final residual = 0.0005188916, No Iterations 3
smoothSolver:  Solving for Uz, Initial residual = 0.0018622576, Final residual = 6.4594376e-05, No Iterations 3
GAMG:  Solving for p, Initial residual = 0.017557093, Final residual = 0.00010952247, No Iterations 3
time step continuity errors : sum local = 1.3170169e-05, global = 2.7820755e-07, cumulative = 0.0002627899
ExecutionTime = 9.832372 s  ClockTime = 10 s

Time = 54s

smoothSolver:  Solving for Ux, Initial residual = 0.0014051143, Final residual = 4.830997e-05, No Iterations 3
smoothSolver:  Solving for Uy, Initial residual = 0.01476644, Final residual = 0.00050900999, No Iterations 3
smoothSolver:  Solving for Uz, Initial residual = 0.0018379091, Final residual = 6.3821088e-05, No Iterations 3
GAMG:  Solving for p, Initial residual = 0.01720796, Final residual = 0.00010598615, No Iterations 3
time step continuity errors : sum local = 1.2788188e-05, global = 1.8344036e-07, cumulative = 0.00026297334
ExecutionTime = 9.998317 s  ClockTime = 10 s

Time = 55s

smoothSolver:  Solving for Ux, Initial residual = 0.0013910717, Final residual = 4.7849268e-05, No Iterations 3
smoothSolver:  Solving for Uy, Initial residual = 0.014478811, Final residual = 0.00049929578, No Iterations 3
smoothSolver:  Solving for Uz, Initial residual = 0.0018150602, Final residual = 6.3098886e-05, No Iterations 3
GAMG:  Solving for p, Initial residual = 0.016888163, Final residual = 0.00011741948, No Iterations 3
time step continuity errors : sum local = 1.4221167e-05, global = 2.1534267e-07, cumulative = 0.00026318868
ExecutionTime = 10.160821 s  ClockTime = 10 s

Time = 56s

smoothSolver:  Solving for Ux, Initial residual = 0.0013781817, Final residual = 4.7424734e-05, No Iterations 3
smoothSolver:  Solving for Uy, Initial residual = 0.014192439, Final residual = 0.00048945062, No Iterations 3
smoothSolver:  Solving for Uz, Initial residual = 0.0017930226, Final residual = 6.2400533e-05, No Iterations 3
GAMG:  Solving for p, Initial residual = 0.016595847, Final residual = 0.00013192376, No Iterations 3
time step continuity errors : sum local = 1.6038442e-05, global = 3.1697293e-07, cumulative = 0.00026350565
ExecutionTime = 10.326815 s  ClockTime = 10 s

Time = 57s

smoothSolver:  Solving for Ux, Initial residual = 0.0013661863, Final residual = 4.7021561e-05, No Iterations 3
smoothSolver:  Solving for Uy, Initial residual = 0.013906462, Final residual = 0.00047966339, No Iterations 3
smoothSolver:  Solving for Uz, Initial residual = 0.0017711653, Final residual = 6.1697963e-05, No Iterations 3
GAMG:  Solving for p, Initial residual = 0.016363502, Final residual = 0.00015684561, No Iterations 3
time step continuity errors : sum local = 1.9133406e-05, global = 4.0675193e-07, cumulative = 0.00026391241
ExecutionTime = 10.491946 s  ClockTime = 10 s

Time = 58s

smoothSolver:  Solving for Ux, Initial residual = 0.0013548751, Final residual = 4.6634449e-05, No Iterations 3
smoothSolver:  Solving for Uy, Initial residual = 0.013633417, Final residual = 0.00047026226, No Iterations 3
smoothSolver:  Solving for Uz, Initial residual = 0.001749153, Final residual = 6.097588e-05, No Iterations 3
GAMG:  Solving for p, Initial residual = 0.016149346, Final residual = 9.7377666e-05, No Iterations 4
time step continuity errors : sum local = 1.1911696e-05, global = 1.7590529e-07, cumulative = 0.00026408831
ExecutionTime = 10.666918 s  ClockTime = 11 s

Time = 59s

smoothSolver:  Solving for Ux, Initial residual = 0.0013444638, Final residual = 4.625952e-05, No Iterations 3
smoothSolver:  Solving for Uy, Initial residual = 0.013384786, Final residual = 0.00046159712, No Iterations 3
smoothSolver:  Solving for Uz, Initial residual = 0.0017260913, Final residual = 6.0193211e-05, No Iterations 3
GAMG:  Solving for p, Initial residual = 0.015973211, Final residual = 9.1366663e-05, No Iterations 4
time step continuity errors : sum local = 1.1192454e-05, global = 1.4291862e-07, cumulative = 0.00026423123
ExecutionTime = 10.838499 s  ClockTime = 11 s

Time = 60s

smoothSolver:  Solving for Ux, Initial residual = 0.001334745, Final residual = 4.5910568e-05, No Iterations 3
smoothSolver:  Solving for Uy, Initial residual = 0.013143239, Final residual = 0.00045317688, No Iterations 3
smoothSolver:  Solving for Uz, Initial residual = 0.0017029819, Final residual = 5.9409469e-05, No Iterations 3
GAMG:  Solving for p, Initial residual = 0.01578828, Final residual = 0.00013397097, No Iterations 3
time step continuity errors : sum local = 1.6433705e-05, global = 2.6600859e-07, cumulative = 0.00026449724
ExecutionTime = 11.003559 s  ClockTime = 11 s

Time = 61s

smoothSolver:  Solving for Ux, Initial residual = 0.0013251372, Final residual = 4.5580238e-05, No Iterations 3
smoothSolver:  Solving for Uy, Initial residual = 0.012896219, Final residual = 0.00044472484, No Iterations 3
smoothSolver:  Solving for Uz, Initial residual = 0.0016815984, Final residual = 5.8703519e-05, No Iterations 3
GAMG:  Solving for p, Initial residual = 0.015549923, Final residual = 0.00012844178, No Iterations 3
time step continuity errors : sum local = 1.5792787e-05, global = 2.239112e-07, cumulative = 0.00026472115
ExecutionTime = 11.166293 s  ClockTime = 11 s

Time = 62s

smoothSolver:  Solving for Ux, Initial residual = 0.0013169867, Final residual = 4.5300932e-05, No Iterations 3
smoothSolver:  Solving for Uy, Initial residual = 0.012657596, Final residual = 0.00043662178, No Iterations 3
smoothSolver:  Solving for Uz, Initial residual = 0.0016607819, Final residual = 5.8016129e-05, No Iterations 3
GAMG:  Solving for p, Initial residual = 0.015342153, Final residual = 0.0001335936, No Iterations 3
time step continuity errors : sum local = 1.6466265e-05, global = 2.2716166e-07, cumulative = 0.00026494831
ExecutionTime = 11.332269 s  ClockTime = 11 s

Time = 63s

smoothSolver:  Solving for Ux, Initial residual = 0.0013103551, Final residual = 4.5073144e-05, No Iterations 3
smoothSolver:  Solving for Uy, Initial residual = 0.012431483, Final residual = 0.00042884813, No Iterations 3
smoothSolver:  Solving for Uz, Initial residual = 0.0016405045, Final residual = 5.7340609e-05, No Iterations 3
GAMG:  Solving for p, Initial residual = 0.015180204, Final residual = 0.00014364763, No Iterations 3
time step continuity errors : sum local = 1.7747816e-05, global = 2.6472017e-07, cumulative = 0.00026521303
ExecutionTime = 11.496368 s  ClockTime = 12 s

Time = 64s

smoothSolver:  Solving for Ux, Initial residual = 0.0013047945, Final residual = 4.4877801e-05, No Iterations 3
smoothSolver:  Solving for Uy, Initial residual = 0.012214656, Final residual = 0.00042140741, No Iterations 3
smoothSolver:  Solving for Uz, Initial residual = 0.00162077, Final residual = 5.6675445e-05, No Iterations 3
GAMG:  Solving for p, Initial residual = 0.015035573, Final residual = 8.9076946e-05, No Iterations 4
time step continuity errors : sum local = 1.1030432e-05, global = 1.2993915e-07, cumulative = 0.00026534297
ExecutionTime = 11.671605 s  ClockTime = 12 s

Time = 65s

smoothSolver:  Solving for Ux, Initial residual = 0.0013002645, Final residual = 4.4709154e-05, No Iterations 3
smoothSolver:  Solving for Uy, Initial residual = 0.012011096, Final residual = 0.00041442514, No Iterations 3
smoothSolver:  Solving for Uz, Initial residual = 0.0016011312, Final residual = 5.6000492e-05, No Iterations 3
GAMG:  Solving for p, Initial residual = 0.014910827, Final residual = 0.00013397127, No Iterations 3
time step continuity errors : sum local = 1.6616767e-05, global = 3.204718e-07, cumulative = 0.00026566344
ExecutionTime = 11.837634 s  ClockTime = 12 s

Time = 66s

smoothSolver:  Solving for Ux, Initial residual = 0.0012939163, Final residual = 4.4490739e-05, No Iterations 3
smoothSolver:  Solving for Uy, Initial residual = 0.011792957, Final residual = 0.000407146, No Iterations 3
smoothSolver:  Solving for Uz, Initial residual = 0.0015828663, Final residual = 5.5390545e-05, No Iterations 3
GAMG:  Solving for p, Initial residual = 0.014725156, Final residual = 0.00013204524, No Iterations 3
time step continuity errors : sum local = 1.6416235e-05, global = 3.4600462e-07, cumulative = 0.00026600945
ExecutionTime = 12.001076 s  ClockTime = 12 s

Time = 67s

smoothSolver:  Solving for Ux, Initial residual = 0.0012874182, Final residual = 4.4265967e-05, No Iterations 3
smoothSolver:  Solving for Uy, Initial residual = 0.011575676, Final residual = 0.00039997822, No Iterations 3
smoothSolver:  Solving for Uz, Initial residual = 0.0015650658, Final residual = 5.4795824e-05, No Iterations 3
GAMG:  Solving for p, Initial residual = 0.014560021, Final residual = 0.00013509093, No Iterations 3
time step continuity errors : sum local = 1.6834344e-05, global = 3.6588712e-07, cumulative = 0.00026637533
ExecutionTime = 12.164858 s  ClockTime = 12 s

Time = 68s

smoothSolver:  Solving for Ux, Initial residual = 0.0012813045, Final residual = 4.4050545e-05, No Iterations 3
smoothSolver:  Solving for Uy, Initial residual = 0.011365352, Final residual = 0.00039301637, No Iterations 3
smoothSolver:  Solving for Uz, Initial residual = 0.0015475656, Final residual = 5.4206744e-05, No Iterations 3
GAMG:  Solving for p, Initial residual = 0.014418715, Final residual = 0.00014004413, No Iterations 3
time step continuity errors : sum local = 1.7491405e-05, global = 3.7094293e-07, cumulative = 0.00026674628
ExecutionTime = 12.330959 s  ClockTime = 12 s

Time = 69s

smoothSolver:  Solving for Ux, Initial residual = 0.0012759384, Final residual = 4.3860663e-05, No Iterations 3
smoothSolver:  Solving for Uy, Initial residual = 0.011167, Final residual = 0.00038641294, No Iterations 3
smoothSolver:  Solving for Uz, Initial residual = 0.0015303199, Final residual = 5.3623854e-05, No Iterations 3
GAMG:  Solving for p, Initial residual = 0.014287578, Final residual = 8.7390134e-05, No Iterations 4
time step continuity errors : sum local = 1.0938886e-05, global = 1.4709496e-07, cumulative = 0.00026689337
ExecutionTime = 12.50349 s  ClockTime = 13 s

Time = 70s

smoothSolver:  Solving for Ux, Initial residual = 0.0012721544, Final residual = 4.3717795e-05, No Iterations 3
smoothSolver:  Solving for Uy, Initial residual = 0.01098956, Final residual = 0.00038042403, No Iterations 3
smoothSolver:  Solving for Uz, Initial residual = 0.0015130336, Final residual = 5.3026382e-05, No Iterations 3
GAMG:  Solving for p, Initial residual = 0.01419037, Final residual = 0.00012343331, No Iterations 3
time step continuity errors : sum local = 1.5475506e-05, global = 3.0185977e-07, cumulative = 0.00026719523
ExecutionTime = 12.66831 s  ClockTime = 13 s

Time = 71s

smoothSolver:  Solving for Ux, Initial residual = 0.0012674286, Final residual = 4.3557962e-05, No Iterations 3
smoothSolver:  Solving for Uy, Initial residual = 0.010810378, Final residual = 0.00037439018, No Iterations 3
smoothSolver:  Solving for Uz, Initial residual = 0.0014967574, Final residual = 5.2479582e-05, No Iterations 3
GAMG:  Solving for p, Initial residual = 0.014047588, Final residual = 0.00012367486, No Iterations 3
time step continuity errors : sum local = 1.5542249e-05, global = 2.6130653e-07, cumulative = 0.00026745654
ExecutionTime = 12.83229 s  ClockTime = 13 s

Time = 72s

smoothSolver:  Solving for Ux, Initial residual = 0.0012633446, Final residual = 4.3422116e-05, No Iterations 3
smoothSolver:  Solving for Uy, Initial residual = 0.01063755, Final residual = 0.00036853142, No Iterations 3
smoothSolver:  Solving for Uz, Initial residual = 0.0014807834, Final residual = 5.1943895e-05, No Iterations 3
GAMG:  Solving for p, Initial residual = 0.013910037, Final residual = 0.00012961795, No Iterations 3
time step continuity errors : sum local = 1.6327252e-05, global = 2.4617378e-07, cumulative = 0.00026770271
ExecutionTime = 12.996567 s  ClockTime = 13 s

Time = 73s

smoothSolver:  Solving for Ux, Initial residual = 0.0012598891, Final residual = 4.3309802e-05, No Iterations 3
smoothSolver:  Solving for Uy, Initial residual = 0.010468576, Final residual = 0.00036274836, No Iterations 3
smoothSolver:  Solving for Uz, Initial residual = 0.0014649941, Final residual = 5.1412605e-05, No Iterations 3
GAMG:  Solving for p, Initial residual = 0.013769608, Final residual = 0.00013651378, No Iterations 3
time step continuity errors : sum local = 1.7234382e-05, global = 2.5128741e-07, cumulative = 0.000267954
ExecutionTime = 13.160449 s  ClockTime = 13 s

Time = 74s

smoothSolver:  Solving for Ux, Initial residual = 0.001256704, Final residual = 4.321106e-05, No Iterations 3
smoothSolver:  Solving for Uy, Initial residual = 0.010299889, Final residual = 0.00035692926, No Iterations 3
smoothSolver:  Solving for Uz, Initial residual = 0.0014494187, Final residual = 5.08842e-05, No Iterations 3
GAMG:  Solving for p, Initial residual = 0.013640851, Final residual = 8.2361327e-05, No Iterations 4
time step continuity errors : sum local = 1.0419807e-05, global = 1.1060306e-07, cumulative = 0.0002680646
ExecutionTime = 13.336477 s  ClockTime = 13 s

Time = 75s

smoothSolver:  Solving for Ux, Initial residual = 0.0012542558, Final residual = 4.3133871e-05, No Iterations 3
smoothSolver:  Solving for Uy, Initial residual = 0.010134736, Final residual = 0.0003511359, No Iterations 3
smoothSolver:  Solving for Uz, Initial residual = 0.0014337428, Final residual = 5.0341906e-05, No Iterations 3
GAMG:  Solving for p, Initial residual = 0.013534803, Final residual = 0.00011903481, No Iterations 3
time step continuity errors : sum local = 1.5083421e-05, global = 2.6435755e-07, cumulative = 0.00026832896
ExecutionTime = 13.502071 s  ClockTime = 14 s

Time = 76s

smoothSolver:  Solving for Ux, Initial residual = 0.0012497872, Final residual = 4.2999287e-05, No Iterations 3
smoothSolver:  Solving for Uy, Initial residual = 0.009959164, Final residual = 0.00034506084, No Iterations 3
smoothSolver:  Solving for Uz, Initial residual = 0.0014190186, Final residual = 4.9847773e-05, No Iterations 3
GAMG:  Solving for p, Initial residual = 0.013367319, Final residual = 0.00011679783, No Iterations 3
time step continuity errors : sum local = 1.4833453e-05, global = 2.6574855e-07, cumulative = 0.00026859471
ExecutionTime = 13.666467 s  ClockTime = 14 s

Time = 77s

smoothSolver:  Solving for Ux, Initial residual = 0.0012454265, Final residual = 4.2870401e-05, No Iterations 3
smoothSolver:  Solving for Uy, Initial residual = 0.0097902387, Final residual = 0.00033921211, No Iterations 3
smoothSolver:  Solving for Uz, Initial residual = 0.0014047102, Final residual = 4.9366467e-05, No Iterations 3
GAMG:  Solving for p, Initial residual = 0.013211572, Final residual = 0.00012062274, No Iterations 3
time step continuity errors : sum local = 1.535427e-05, global = 2.8733877e-07, cumulative = 0.00026888205
ExecutionTime = 13.82934 s  ClockTime = 14 s

Time = 78s

smoothSolver:  Solving for Ux, Initial residual = 0.0012416576, Final residual = 4.2763937e-05, No Iterations 3
smoothSolver:  Solving for Uy, Initial residual = 0.0096328452, Final residual = 0.0003337435, No Iterations 3
smoothSolver:  Solving for Uz, Initial residual = 0.0013907098, Final residual = 4.8893863e-05, No Iterations 3
GAMG:  Solving for p, Initial residual = 0.013081125, Final residual = 0.00012716174, No Iterations 3
time step continuity errors : sum local = 1.6222489e-05, global = 2.9365732e-07, cumulative = 0.0002691757
ExecutionTime = 13.994892 s  ClockTime = 14 s

Time = 79s

smoothSolver:  Solving for Ux, Initial residual = 0.0012385642, Final residual = 4.2684818e-05, No Iterations 3
smoothSolver:  Solving for Uy, Initial residual = 0.0094868008, Final residual = 0.00032867539, No Iterations 3
smoothSolver:  Solving for Uz, Initial residual = 0.0013769815, Final residual = 4.8432925e-05, No Iterations 3
GAMG:  Solving for p, Initial residual = 0.012973414, Final residual = 7.7843026e-05, No Iterations 4
time step continuity errors : sum local = 9.9516204e-06, global = 1.2438178e-07, cumulative = 0.00026930009
ExecutionTime = 14.169234 s  ClockTime = 14 s

Time = 80s

smoothSolver:  Solving for Ux, Initial residual = 0.0012367901, Final residual = 4.2647559e-05, No Iterations 3
smoothSolver:  Solving for Uy, Initial residual = 0.0093540751, Final residual = 0.00032404944, No Iterations 3
smoothSolver:  Solving for Uz, Initial residual = 0.0013633686, Final residual = 4.7967425e-05, No Iterations 3
GAMG:  Solving for p, Initial residual = 0.012899574, Final residual = 0.0001145021, No Iterations 3
time step continuity errors : sum local = 1.4662072e-05, global = 2.4441225e-07, cumulative = 0.0002695445
ExecutionTime = 14.334039 s  ClockTime = 14 s

Time = 81s

smoothSolver:  Solving for Ux, Initial residual = 0.0012333854, Final residual = 4.2562868e-05, No Iterations 3
smoothSolver:  Solving for Uy, Initial residual = 0.0092167914, Final residual = 0.0003193496, No Iterations 3
smoothSolver:  Solving for Uz, Initial residual = 0.0013503664, Final residual = 4.7535669e-05, No Iterations 3
GAMG:  Solving for p, Initial residual = 0.012787424, Final residual = 0.00011288655, No Iterations 3
time step continuity errors : sum local = 1.448673e-05, global = 2.3168179e-07, cumulative = 0.00026977618
ExecutionTime = 14.497185 s  ClockTime = 15 s

Time = 82s

smoothSolver:  Solving for Ux, Initial residual = 0.0012302132, Final residual = 4.2483612e-05, No Iterations 3
smoothSolver:  Solving for Uy, Initial residual = 0.0090816604, Final residual = 0.00031471955, No Iterations 3
smoothSolver:  Solving for Uz, Initial residual = 0.0013375771, Final residual = 4.7109703e-05, No Iterations 3
GAMG:  Solving for p, Initial residual = 0.012694697, Final residual = 0.00011687427, No Iterations 3
time step continuity errors : sum local = 1.5031388e-05, global = 2.1956116e-07, cumulative = 0.00026999574
ExecutionTime = 14.661278 s  ClockTime = 15 s

Time = 83s

smoothSolver:  Solving for Ux, Initial residual = 0.0012274214, Final residual = 4.2419042e-05, No Iterations 3
smoothSolver:  Solving for Uy, Initial residual = 0.0089493522, Final residual = 0.0003102293, No Iterations 3
smoothSolver:  Solving for Uz, Initial residual = 0.0013249148, Final residual = 4.668679e-05, No Iterations 3
GAMG:  Solving for p, Initial residual = 0.012602902, Final residual = 0.00012261781, No Iterations 3
time step continuity errors : sum local = 1.5803012e-05, global = 2.2432094e-07, cumulative = 0.00027022006
ExecutionTime = 14.825953 s  ClockTime = 15 s

Time = 84s

smoothSolver:  Solving for Ux, Initial residual = 0.0012248921, Final residual = 4.2361596e-05, No Iterations 3
smoothSolver:  Solving for Uy, Initial residual = 0.0088189811, Final residual = 0.00030574197, No Iterations 3
smoothSolver:  Solving for Uz, Initial residual = 0.0013123111, Final residual = 4.6263494e-05, No Iterations 3
GAMG:  Solving for p, Initial residual = 0.012514936, Final residual = 7.3886639e-05, No Iterations 4
time step continuity errors : sum local = 9.5411146e-06, global = 1.0391464e-07, cumulative = 0.00027032398
ExecutionTime = 14.999584 s  ClockTime = 15 s

Time = 85s

smoothSolver:  Solving for Ux, Initial residual = 0.001223198, Final residual = 4.2321982e-05, No Iterations 3
smoothSolver:  Solving for Uy, Initial residual = 0.0086895711, Final residual = 0.00030115332, No Iterations 3
smoothSolver:  Solving for Uz, Initial residual = 0.0012995932, Final residual = 4.5827678e-05, No Iterations 3
GAMG:  Solving for p, Initial residual = 0.012449336, Final residual = 0.00011080556, No Iterations 3
time step continuity errors : sum local = 1.4330212e-05, global = 2.1748391e-07, cumulative = 0.00027054146
ExecutionTime = 15.164258 s  ClockTime = 15 s

Time = 86s

smoothSolver:  Solving for Ux, Initial residual = 0.0012195429, Final residual = 4.2214885e-05, No Iterations 3
smoothSolver:  Solving for Uy, Initial residual = 0.0085527213, Final residual = 0.00029633201, No Iterations 3
smoothSolver:  Solving for Uz, Initial residual = 0.0012873797, Final residual = 4.5419882e-05, No Iterations 3
GAMG:  Solving for p, Initial residual = 0.012342482, Final residual = 0.00011003044, No Iterations 3
time step continuity errors : sum local = 1.4257869e-05, global = 2.2131159e-07, cumulative = 0.00027076277
ExecutionTime = 15.3311 s  ClockTime = 15 s

Time = 87s

smoothSolver:  Solving for Ux, Initial residual = 0.0012159449, Final residual = 4.2108143e-05, No Iterations 3
smoothSolver:  Solving for Uy, Initial residual = 0.0084175418, Final residual = 0.00029157568, No Iterations 3
smoothSolver:  Solving for Uz, Initial residual = 0.00127546, Final residual = 4.5020808e-05, No Iterations 3
GAMG:  Solving for p, Initial residual = 0.012253539, Final residual = 0.00011465922, No Iterations 3
time step continuity errors : sum local = 1.488647e-05, global = 2.2854509e-07, cumulative = 0.00027099132
ExecutionTime = 15.494981 s  ClockTime = 16 s

Time = 88s

smoothSolver:  Solving for Ux, Initial residual = 0.0012128379, Final residual = 4.2019818e-05, No Iterations 3
smoothSolver:  Solving for Uy, Initial residual = 0.0082862921, Final residual = 0.00028702565, No Iterations 3
smoothSolver:  Solving for Uz, Initial residual = 0.0012637384, Final residual = 4.4628329e-05, No Iterations 3
GAMG:  Solving for p, Initial residual = 0.012164822, Final residual = 0.00012052839, No Iterations 3
time step continuity errors : sum local = 1.567771e-05, global = 2.361502e-07, cumulative = 0.00027122747
ExecutionTime = 15.661319 s  ClockTime = 16 s

Time = 89s

smoothSolver:  Solving for Ux, Initial residual = 0.0012102264, Final residual = 4.1949925e-05, No Iterations 3
smoothSolver:  Solving for Uy, Initial residual = 0.0081606823, Final residual = 0.00028270625, No Iterations 3
smoothSolver:  Solving for Uz, Initial residual = 0.0012522218, Final residual = 4.4240474e-05, No Iterations 3
GAMG:  Solving for p, Initial residual = 0.012083308, Final residual = 7.2354568e-05, No Iterations 4
time step continuity errors : sum local = 9.4280004e-06, global = 1.0509789e-07, cumulative = 0.00027133257
ExecutionTime = 15.836139 s  ClockTime = 16 s

Time = 90s

smoothSolver:  Solving for Ux, Initial residual = 0.0012086115, Final residual = 4.1911486e-05, No Iterations 3
smoothSolver:  Solving for Uy, Initial residual = 0.0080412638, Final residual = 0.00027857628, No Iterations 3
smoothSolver:  Solving for Uz, Initial residual = 0.0012408213, Final residual = 4.3848067e-05, No Iterations 3
GAMG:  Solving for p, Initial residual = 0.01203931, Final residual = 0.00010770833, No Iterations 3
time step continuity errors : sum local = 1.4053728e-05, global = 2.0511512e-07, cumulative = 0.00027153768
ExecutionTime = 15.998653 s  ClockTime = 16 s

Time = 91s

smoothSolver:  Solving for Ux, Initial residual = 0.0012053238, Final residual = 4.1824781e-05, No Iterations 3
smoothSolver:  Solving for Uy, Initial residual = 0.0079190858, Final residual = 0.00027435278, No Iterations 3
smoothSolver:  Solving for Uz, Initial residual = 0.0012298521, Final residual = 4.3482429e-05, No Iterations 3
GAMG:  Solving for p, Initial residual = 0.011942478, Final residual = 0.00010512689, No Iterations 3
time step continuity errors : sum local = 1.374224e-05, global = 1.8982712e-07, cumulative = 0.00027172751
ExecutionTime = 16.161031 s  ClockTime = 16 s

Time = 92s

smoothSolver:  Solving for Ux, Initial residual = 0.0012021597, Final residual = 4.1747844e-05, No Iterations 3
smoothSolver:  Solving for Uy, Initial residual = 0.0077990391, Final residual = 0.00027015959, No Iterations 3
smoothSolver:  Solving for Uz, Initial residual = 0.0012190248, Final residual = 4.3122964e-05, No Iterations 3
GAMG:  Solving for p, Initial residual = 0.011845535, Final residual = 0.00010709834, No Iterations 3
time step continuity errors : sum local = 1.4025999e-05, global = 1.8799786e-07, cumulative = 0.00027191551
ExecutionTime = 16.328325 s  ClockTime = 16 s

Time = 93s

smoothSolver:  Solving for Ux, Initial residual = 0.0011993242, Final residual = 4.1685138e-05, No Iterations 3
smoothSolver:  Solving for Uy, Initial residual = 0.0076804841, Final residual = 0.00026602583, No Iterations 3
smoothSolver:  Solving for Uz, Initial residual = 0.0012082637, Final residual = 4.2765253e-05, No Iterations 3
GAMG:  Solving for p, Initial residual = 0.011765729, Final residual = 0.00011124053, No Iterations 3
time step continuity errors : sum local = 1.4595267e-05, global = 1.894628e-07, cumulative = 0.00027210497
ExecutionTime = 16.491442 s  ClockTime = 17 s

Time = 94s

smoothSolver:  Solving for Ux, Initial residual = 0.0011967858, Final residual = 4.1638284e-05, No Iterations 3
smoothSolver:  Solving for Uy, Initial residual = 0.0075667885, Final residual = 0.00026205725, No Iterations 3
smoothSolver:  Solving for Uz, Initial residual = 0.0011976697, Final residual = 4.2412577e-05, No Iterations 3
GAMG:  Solving for p, Initial residual = 0.011698068, Final residual = 0.00011485616, No Iterations 3
time step continuity errors : sum local = 1.5096447e-05, global = 1.90969e-07, cumulative = 0.00027229594
ExecutionTime = 16.655605 s  ClockTime = 17 s

Time = 95s

smoothSolver:  Solving for Ux, Initial residual = 0.0011943461, Final residual = 4.1603285e-05, No Iterations 3
smoothSolver:  Solving for Uy, Initial residual = 0.0074560937, Final residual = 0.00025825704, No Iterations 3
smoothSolver:  Solving for Uz, Initial residual = 0.0011872678, Final residual = 4.2066975e-05, No Iterations 3
GAMG:  Solving for p, Initial residual = 0.01161469, Final residual = 0.00011542966, No Iterations 3
time step continuity errors : sum local = 1.5197393e-05, global = 2.0008767e-07, cumulative = 0.00027249602
ExecutionTime = 16.819608 s  ClockTime = 17 s

Time = 96s

smoothSolver:  Solving for Ux, Initial residual = 0.0011917599, Final residual = 4.1564367e-05, No Iterations 3
smoothSolver:  Solving for Uy, Initial residual = 0.0073464624, Final residual = 0.00025449458, No Iterations 3
smoothSolver:  Solving for Uz, Initial residual = 0.0011770045, Final residual = 4.1726301e-05, No Iterations 3
GAMG:  Solving for p, Initial residual = 0.011531699, Final residual = 0.00011376414, No Iterations 3
time step continuity errors : sum local = 1.5002584e-05, global = 1.9975869e-07, cumulative = 0.00027269578
ExecutionTime = 16.98427 s  ClockTime = 17 s

Time = 97s

smoothSolver:  Solving for Ux, Initial residual = 0.0011889109, Final residual = 4.1516949e-05, No Iterations 3
smoothSolver:  Solving for Uy, Initial residual = 0.0072351645, Final residual = 0.0002506868, No Iterations 3
smoothSolver:  Solving for Uz, Initial residual = 0.0011668685, Final residual = 4.1390341e-05, No Iterations 3
GAMG:  Solving for p, Initial residual = 0.011466199, Final residual = 0.00011074524, No Iterations 3
time step continuity errors : sum local = 1.4628167e-05, global = 1.9693356e-07, cumulative = 0.00027289272
ExecutionTime = 17.148282 s  ClockTime = 17 s

Time = 98s

smoothSolver:  Solving for Ux, Initial residual = 0.001185895, Final residual = 4.1460314e-05, No Iterations 3
smoothSolver:  Solving for Uy, Initial residual = 0.0071249572, Final residual = 0.00024692222, No Iterations 3
smoothSolver:  Solving for Uz, Initial residual = 0.0011569241, Final residual = 4.1057869e-05, No Iterations 3
GAMG:  Solving for p, Initial residual = 0.011386771, Final residual = 0.00010749819, No Iterations 3
time step continuity errors : sum local = 1.4222437e-05, global = 1.9090406e-07, cumulative = 0.00027308362
ExecutionTime = 17.312315 s  ClockTime = 17 s

Time = 99s

smoothSolver:  Solving for Ux, Initial residual = 0.0011828865, Final residual = 4.1400292e-05, No Iterations 3
smoothSolver:  Solving for Uy, Initial residual = 0.007015919, Final residual = 0.00024319586, No Iterations 3
smoothSolver:  Solving for Uz, Initial residual = 0.0011471172, Final residual = 4.0729038e-05, No Iterations 3
GAMG:  Solving for p, Initial residual = 0.011303993, Final residual = 0.00010518044, No Iterations 3
time step continuity errors : sum local = 1.3938599e-05, global = 1.8391977e-07, cumulative = 0.00027326754
ExecutionTime = 17.477312 s  ClockTime = 18 s

Time = 100s

smoothSolver:  Solving for Ux, Initial residual = 0.0011799426, Final residual = 4.1340798e-05, No Iterations 3
smoothSolver:  Solving for Uy, Initial residual = 0.0069084924, Final residual = 0.0002395241, No Iterations 3
smoothSolver:  Solving for Uz, Initial residual = 0.0011374415, Final residual = 4.0405773e-05, No Iterations 3
GAMG:  Solving for p, Initial residual = 0.011215844, Final residual = 0.00010419257, No Iterations 3
time step continuity errors : sum local = 1.383061e-05, global = 1.7919716e-07, cumulative = 0.00027344674
ExecutionTime = 17.64073 s  ClockTime = 18 s

Time = 101s

smoothSolver:  Solving for Ux, Initial residual = 0.0011770755, Final residual = 4.1279081e-05, No Iterations 3
smoothSolver:  Solving for Uy, Initial residual = 0.006804764, Final residual = 0.00023593858, No Iterations 3
smoothSolver:  Solving for Uz, Initial residual = 0.0011279102, Final residual = 4.0085746e-05, No Iterations 3
GAMG:  Solving for p, Initial residual = 0.011149907, Final residual = 0.00010428453, No Iterations 3
time step continuity errors : sum local = 1.3866014e-05, global = 1.7557786e-07, cumulative = 0.00027362232
ExecutionTime = 17.804433 s  ClockTime = 18 s

Time = 102s

smoothSolver:  Solving for Ux, Initial residual = 0.001174265, Final residual = 4.121567e-05, No Iterations 3
smoothSolver:  Solving for Uy, Initial residual = 0.0067056884, Final residual = 0.00023247419, No Iterations 3
smoothSolver:  Solving for Uz, Initial residual = 0.0011185451, Final residual = 3.9771625e-05, No Iterations 3
GAMG:  Solving for p, Initial residual = 0.011086525, Final residual = 0.0001045727, No Iterations 3
time step continuity errors : sum local = 1.3927947e-05, global = 1.68437e-07, cumulative = 0.00027379075
ExecutionTime = 17.97086 s  ClockTime = 18 s

Time = 103s

smoothSolver:  Solving for Ux, Initial residual = 0.0011714631, Final residual = 4.1152853e-05, No Iterations 3
smoothSolver:  Solving for Uy, Initial residual = 0.006610493, Final residual = 0.00022911469, No Iterations 3
smoothSolver:  Solving for Uz, Initial residual = 0.0011093726, Final residual = 3.9465185e-05, No Iterations 3
GAMG:  Solving for p, Initial residual = 0.011024107, Final residual = 0.00010448701, No Iterations 3
time step continuity errors : sum local = 1.3939913e-05, global = 1.6761558e-07, cumulative = 0.00027395837
ExecutionTime = 18.13577 s  ClockTime = 18 s

Time = 104s

smoothSolver:  Solving for Ux, Initial residual = 0.001168627, Final residual = 4.1086462e-05, No Iterations 3
smoothSolver:  Solving for Uy, Initial residual = 0.006518306, Final residual = 0.00022583065, No Iterations 3
smoothSolver:  Solving for Uz, Initial residual = 0.0011003461, Final residual = 3.9165126e-05, No Iterations 3
GAMG:  Solving for p, Initial residual = 0.010956782, Final residual = 0.0001040674, No Iterations 3
time step continuity errors : sum local = 1.3907295e-05, global = 1.6670809e-07, cumulative = 0.00027412508
ExecutionTime = 18.30255 s  ClockTime = 18 s

Time = 105s

smoothSolver:  Solving for Ux, Initial residual = 0.0011657158, Final residual = 4.1012447e-05, No Iterations 3
smoothSolver:  Solving for Uy, Initial residual = 0.0064272732, Final residual = 0.00022258456, No Iterations 3
smoothSolver:  Solving for Uz, Initial residual = 0.0010914485, Final residual = 3.8868414e-05, No Iterations 3
GAMG:  Solving for p, Initial residual = 0.010889378, Final residual = 0.00010334831, No Iterations 3
time step continuity errors : sum local = 1.3834392e-05, global = 1.6521701e-07, cumulative = 0.00027429029
ExecutionTime = 18.467806 s  ClockTime = 19 s

Time = 106s

smoothSolver:  Solving for Ux, Initial residual = 0.0011627521, Final residual = 4.093926e-05, No Iterations 3
smoothSolver:  Solving for Uy, Initial residual = 0.0063364706, Final residual = 0.00021937138, No Iterations 3
smoothSolver:  Solving for Uz, Initial residual = 0.0010826864, Final residual = 3.8576295e-05, No Iterations 3
GAMG:  Solving for p, Initial residual = 0.010832936, Final residual = 0.00010259558, No Iterations 3
time step continuity errors : sum local = 1.3756397e-05, global = 1.6869351e-07, cumulative = 0.00027445899
ExecutionTime = 18.630275 s  ClockTime = 19 s

Time = 107s

smoothSolver:  Solving for Ux, Initial residual = 0.0011597737, Final residual = 4.0867344e-05, No Iterations 3
smoothSolver:  Solving for Uy, Initial residual = 0.0062477716, Final residual = 0.00021623697, No Iterations 3
smoothSolver:  Solving for Uz, Initial residual = 0.0010740411, Final residual = 3.8289069e-05, No Iterations 3
GAMG:  Solving for p, Initial residual = 0.010775079, Final residual = 0.00010203777, No Iterations 3
time step continuity errors : sum local = 1.3704314e-05, global = 1.69268e-07, cumulative = 0.00027462825
ExecutionTime = 18.794437 s  ClockTime = 19 s

Time = 108s

smoothSolver:  Solving for Ux, Initial residual = 0.0011568297, Final residual = 4.0796978e-05, No Iterations 3
smoothSolver:  Solving for Uy, Initial residual = 0.006162462, Final residual = 0.00021322556, No Iterations 3
smoothSolver:  Solving for Uz, Initial residual = 0.0010655335, Final residual = 3.8007407e-05, No Iterations 3
GAMG:  Solving for p, Initial residual = 0.010711044, Final residual = 0.00010156984, No Iterations 3
time step continuity errors : sum local = 1.3663898e-05, global = 1.6967423e-07, cumulative = 0.00027479793
ExecutionTime = 18.960282 s  ClockTime = 19 s

Time = 109s

smoothSolver:  Solving for Ux, Initial residual = 0.0011538924, Final residual = 4.0726245e-05, No Iterations 3
smoothSolver:  Solving for Uy, Initial residual = 0.0060817116, Final residual = 0.00021034535, No Iterations 3
smoothSolver:  Solving for Uz, Initial residual = 0.0010571432, Final residual = 3.7730165e-05, No Iterations 3
GAMG:  Solving for p, Initial residual = 0.01067385, Final residual = 0.00010150153, No Iterations 3
time step continuity errors : sum local = 1.3676915e-05, global = 1.7029903e-07, cumulative = 0.00027496823
ExecutionTime = 19.125683 s  ClockTime = 19 s

Time = 110s

smoothSolver:  Solving for Ux, Initial residual = 0.0011509339, Final residual = 4.0648637e-05, No Iterations 3
smoothSolver:  Solving for Uy, Initial residual = 0.0060027436, Final residual = 0.00020757217, No Iterations 3
smoothSolver:  Solving for Uz, Initial residual = 0.0010488788, Final residual = 3.745578e-05, No Iterations 3
GAMG:  Solving for p, Initial residual = 0.010651627, Final residual = 0.00010170473, No Iterations 3
time step continuity errors : sum local = 1.3726319e-05, global = 1.6854667e-07, cumulative = 0.00027513677
ExecutionTime = 19.289113 s  ClockTime = 19 s

Time = 111s

smoothSolver:  Solving for Ux, Initial residual = 0.001147902, Final residual = 4.0566302e-05, No Iterations 3
smoothSolver:  Solving for Uy, Initial residual = 0.0059252872, Final residual = 0.00020482614, No Iterations 3
smoothSolver:  Solving for Uz, Initial residual = 0.0010407299, Final residual = 3.7186095e-05, No Iterations 3
GAMG:  Solving for p, Initial residual = 0.010619378, Final residual = 0.0001015716, No Iterations 3
time step continuity errors : sum local = 1.3730117e-05, global = 1.6759679e-07, cumulative = 0.00027530437
ExecutionTime = 19.456788 s  ClockTime = 20 s

Time = 112s

smoothSolver:  Solving for Ux, Initial residual = 0.0011447603, Final residual = 4.0479457e-05, No Iterations 3
smoothSolver:  Solving for Uy, Initial residual = 0.0058486152, Final residual = 0.0002020816, No Iterations 3
smoothSolver:  Solving for Uz, Initial residual = 0.001032651, Final residual = 3.6918098e-05, No Iterations 3
GAMG:  Solving for p, Initial residual = 0.010562024, Final residual = 0.00010099396, No Iterations 3
time step continuity errors : sum local = 1.3673194e-05, global = 1.6484659e-07, cumulative = 0.00027546922
ExecutionTime = 19.622564 s  ClockTime = 20 s

Time = 113s

smoothSolver:  Solving for Ux, Initial residual = 0.0011415618, Final residual = 4.0387495e-05, No Iterations 3
smoothSolver:  Solving for Uy, Initial residual = 0.0057705142, Final residual = 0.00019932138, No Iterations 3
smoothSolver:  Solving for Uz, Initial residual = 0.001024605, Final residual = 3.6651071e-05, No Iterations 3
GAMG:  Solving for p, Initial residual = 0.010511515, Final residual = 0.00010021738, No Iterations 3
time step continuity errors : sum local = 1.358884e-05, global = 1.6127404e-07, cumulative = 0.00027563049
ExecutionTime = 19.787353 s  ClockTime = 20 s

Time = 114s

smoothSolver:  Solving for Ux, Initial residual = 0.0011382699, Final residual = 4.0290222e-05, No Iterations 3
smoothSolver:  Solving for Uy, Initial residual = 0.0056917725, Final residual = 0.0001965727, No Iterations 3
smoothSolver:  Solving for Uz, Initial residual = 0.0010166145, Final residual = 3.6385499e-05, No Iterations 3
GAMG:  Solving for p, Initial residual = 0.010456797, Final residual = 9.9177048e-05, No Iterations 3
time step continuity errors : sum local = 1.3468008e-05, global = 1.5596669e-07, cumulative = 0.00027578646
ExecutionTime = 19.953428 s  ClockTime = 20 s

Time = 115s

smoothSolver:  Solving for Ux, Initial residual = 0.0011349201, Final residual = 4.0188687e-05, No Iterations 3
smoothSolver:  Solving for Uy, Initial residual = 0.0056162249, Final residual = 0.000193922, No Iterations 3
smoothSolver:  Solving for Uz, Initial residual = 0.0010087068, Final residual = 3.612302e-05, No Iterations 3
GAMG:  Solving for p, Initial residual = 0.010400571, Final residual = 9.792932e-05, No Iterations 3
time step continuity errors : sum local = 1.3318416e-05, global = 1.5351541e-07, cumulative = 0.00027593997
ExecutionTime = 20.116524 s  ClockTime = 20 s

Time = 116s

smoothSolver:  Solving for Ux, Initial residual = 0.0011315455, Final residual = 4.0083011e-05, No Iterations 3
smoothSolver:  Solving for Uy, Initial residual = 0.0055446774, Final residual = 0.00019141288, No Iterations 3
smoothSolver:  Solving for Uz, Initial residual = 0.0010009128, Final residual = 3.586329e-05, No Iterations 3
GAMG:  Solving for p, Initial residual = 0.010360541, Final residual = 9.6915557e-05, No Iterations 3
time step continuity errors : sum local = 1.3200117e-05, global = 1.5014193e-07, cumulative = 0.00027609012
ExecutionTime = 20.282059 s  ClockTime = 20 s

Time = 117s

smoothSolver:  Solving for Ux, Initial residual = 0.001128158, Final residual = 3.9977181e-05, No Iterations 3
smoothSolver:  Solving for Uy, Initial residual = 0.0054772315, Final residual = 0.00018903421, No Iterations 3
smoothSolver:  Solving for Uz, Initial residual = 0.0009932526, Final residual = 3.5607117e-05, No Iterations 3
GAMG:  Solving for p, Initial residual = 0.010324134, Final residual = 9.6335433e-05, No Iterations 3
time step continuity errors : sum local = 1.3140587e-05, global = 1.4755671e-07, cumulative = 0.00027623767
ExecutionTime = 20.4474 s  ClockTime = 21 s

Time = 118s

smoothSolver:  Solving for Ux, Initial residual = 0.0011247464, Final residual = 3.9871391e-05, No Iterations 3
smoothSolver:  Solving for Uy, Initial residual = 0.0054135151, Final residual = 0.00018679783, No Iterations 3
smoothSolver:  Solving for Uz, Initial residual = 0.00098572155, Final residual = 3.5356138e-05, No Iterations 3
GAMG:  Solving for p, Initial residual = 0.0102849, Final residual = 9.5743989e-05, No Iterations 3
time step continuity errors : sum local = 1.3079189e-05, global = 1.4574192e-07, cumulative = 0.00027638341
ExecutionTime = 20.61209 s  ClockTime = 21 s

Time = 119s

smoothSolver:  Solving for Ux, Initial residual = 0.0011213348, Final residual = 3.9765833e-05, No Iterations 3
smoothSolver:  Solving for Uy, Initial residual = 0.005351, Final residual = 0.00018465955, No Iterations 3
smoothSolver:  Solving for Uz, Initial residual = 0.00097830878, Final residual = 3.5110217e-05, No Iterations 3
GAMG:  Solving for p, Initial residual = 0.01023017, Final residual = 9.5068929e-05, No Iterations 3
time step continuity errors : sum local = 1.3005976e-05, global = 1.4450693e-07, cumulative = 0.00027652792
ExecutionTime = 20.775837 s  ClockTime = 21 s

Time = 120s

smoothSolver:  Solving for Ux, Initial residual = 0.001117909, Final residual = 3.9659238e-05, No Iterations 3
smoothSolver:  Solving for Uy, Initial residual = 0.0052911794, Final residual = 0.00018260451, No Iterations 3
smoothSolver:  Solving for Uz, Initial residual = 0.00097099884, Final residual = 3.4867806e-05, No Iterations 3
GAMG:  Solving for p, Initial residual = 0.010166548, Final residual = 9.4258581e-05, No Iterations 3
time step continuity errors : sum local = 1.2913924e-05, global = 1.4376378e-07, cumulative = 0.00027667169
ExecutionTime = 20.940206 s  ClockTime = 21 s

Time = 121s

smoothSolver:  Solving for Ux, Initial residual = 0.0011144302, Final residual = 3.9548215e-05, No Iterations 3
smoothSolver:  Solving for Uy, Initial residual = 0.0052323194, Final residual = 0.00018061287, No Iterations 3
smoothSolver:  Solving for Uz, Initial residual = 0.0009637524, Final residual = 3.4628308e-05, No Iterations 3
GAMG:  Solving for p, Initial residual = 0.010101724, Final residual = 9.3469381e-05, No Iterations 3
time step continuity errors : sum local = 1.282455e-05, global = 1.4227724e-07, cumulative = 0.00027681396
ExecutionTime = 21.104784 s  ClockTime = 21 s

Time = 122s

smoothSolver:  Solving for Ux, Initial residual = 0.0011109039, Final residual = 3.9434477e-05, No Iterations 3
smoothSolver:  Solving for Uy, Initial residual = 0.0051753219, Final residual = 0.00017873287, No Iterations 3
smoothSolver:  Solving for Uz, Initial residual = 0.00095659379, Final residual = 3.4390713e-05, No Iterations 3
GAMG:  Solving for p, Initial residual = 0.010046929, Final residual = 9.2814679e-05, No Iterations 3
time step continuity errors : sum local = 1.2753261e-05, global = 1.4197512e-07, cumulative = 0.00027695594
ExecutionTime = 21.271077 s  ClockTime = 21 s

Time = 123s

smoothSolver:  Solving for Ux, Initial residual = 0.001107355, Final residual = 3.9320452e-05, No Iterations 3
smoothSolver:  Solving for Uy, Initial residual = 0.0051210754, Final residual = 0.00017701413, No Iterations 3
smoothSolver:  Solving for Uz, Initial residual = 0.00094953157, Final residual = 3.4155105e-05, No Iterations 3
GAMG:  Solving for p, Initial residual = 0.0099984096, Final residual = 9.2439974e-05, No Iterations 3
time step continuity errors : sum local = 1.2720196e-05, global = 1.4085566e-07, cumulative = 0.00027709679
ExecutionTime = 21.436653 s  ClockTime = 22 s

Time = 124s

smoothSolver:  Solving for Ux, Initial residual = 0.0011037762, Final residual = 3.9204323e-05, No Iterations 3
smoothSolver:  Solving for Uy, Initial residual = 0.0050704026, Final residual = 0.00017539397, No Iterations 3
smoothSolver:  Solving for Uz, Initial residual = 0.00094254753, Final residual = 3.3921754e-05, No Iterations 3
GAMG:  Solving for p, Initial residual = 0.009943518, Final residual = 9.2383187e-05, No Iterations 3
time step continuity errors : sum local = 1.27308e-05, global = 1.3718367e-07, cumulative = 0.00027723398
ExecutionTime = 21.60069 s  ClockTime = 22 s

Time = 125s

smoothSolver:  Solving for Ux, Initial residual = 0.0011002066, Final residual = 3.9085204e-05, No Iterations 3
smoothSolver:  Solving for Uy, Initial residual = 0.0050211089, Final residual = 0.00017377818, No Iterations 3
smoothSolver:  Solving for Uz, Initial residual = 0.00093560124, Final residual = 3.3689385e-05, No Iterations 3
GAMG:  Solving for p, Initial residual = 0.0098825293, Final residual = 9.2481454e-05, No Iterations 3
time step continuity errors : sum local = 1.2762509e-05, global = 1.3537235e-07, cumulative = 0.00027736935
ExecutionTime = 21.767438 s  ClockTime = 22 s

Time = 126s

smoothSolver:  Solving for Ux, Initial residual = 0.0010966324, Final residual = 3.8966677e-05, No Iterations 3
smoothSolver:  Solving for Uy, Initial residual = 0.0049708121, Final residual = 0.00017211919, No Iterations 3
smoothSolver:  Solving for Uz, Initial residual = 0.00092867697, Final residual = 3.3457903e-05, No Iterations 3
GAMG:  Solving for p, Initial residual = 0.0098223905, Final residual = 9.1973238e-05, No Iterations 3
time step continuity errors : sum local = 1.271003e-05, global = 1.2979615e-07, cumulative = 0.00027749915
ExecutionTime = 21.93041 s  ClockTime = 22 s

Time = 127s

smoothSolver:  Solving for Ux, Initial residual = 0.0010930046, Final residual = 3.8851213e-05, No Iterations 3
smoothSolver:  Solving for Uy, Initial residual = 0.0049170481, Final residual = 0.00017030859, No Iterations 3
smoothSolver:  Solving for Uz, Initial residual = 0.00092175413, Final residual = 3.3227908e-05, No Iterations 3
GAMG:  Solving for p, Initial residual = 0.0097663687, Final residual = 9.1133531e-05, No Iterations 3
time step continuity errors : sum local = 1.2611082e-05, global = 1.2527487e-07, cumulative = 0.00027762442
ExecutionTime = 22.097405 s  ClockTime = 22 s

Time = 128s

smoothSolver:  Solving for Ux, Initial residual = 0.0010892445, Final residual = 3.873334e-05, No Iterations 3
smoothSolver:  Solving for Uy, Initial residual = 0.0048610345, Final residual = 0.00016839666, No Iterations 3
smoothSolver:  Solving for Uz, Initial residual = 0.00091485606, Final residual = 3.2997656e-05, No Iterations 3
GAMG:  Solving for p, Initial residual = 0.0097312082, Final residual = 9.0191483e-05, No Iterations 3
time step continuity errors : sum local = 1.2497367e-05, global = 1.2173138e-07, cumulative = 0.00027774615
ExecutionTime = 22.263495 s  ClockTime = 22 s

Time = 129s

smoothSolver:  Solving for Ux, Initial residual = 0.0010854046, Final residual = 3.8616431e-05, No Iterations 3
smoothSolver:  Solving for Uy, Initial residual = 0.004807092, Final residual = 0.00016651702, No Iterations 3
smoothSolver:  Solving for Uz, Initial residual = 0.00090803202, Final residual = 3.2770336e-05, No Iterations 3
GAMG:  Solving for p, Initial residual = 0.009701407, Final residual = 8.9363205e-05, No Iterations 3
time step continuity errors : sum local = 1.2399021e-05, global = 1.1987749e-07, cumulative = 0.00027786603
ExecutionTime = 22.428995 s  ClockTime = 23 s

Time = 130s

smoothSolver:  Solving for Ux, Initial residual = 0.0010815616, Final residual = 3.850435e-05, No Iterations 3
smoothSolver:  Solving for Uy, Initial residual = 0.0047585995, Final residual = 0.00016482332, No Iterations 3
smoothSolver:  Solving for Uz, Initial residual = 0.00090133896, Final residual = 3.2548095e-05, No Iterations 3
[...]
GAMG:  Solving for p, Initial residual = 1.3094895e-05, Final residual = 8.5360106e-08, No Iterations 3
time step continuity errors : sum local = 1.4326443e-08, global = -3.4562954e-10, cumulative = 0.00029986922
ExecutionTime = 200.06497 s  ClockTime = 202 s

Time = 1208s

smoothSolver:  Solving for Ux, Initial residual = 1.2014684e-06, Final residual = 4.39672e-08, No Iterations 3
smoothSolver:  Solving for Uy, Initial residual = 9.3837436e-06, Final residual = 3.4357568e-07, No Iterations 3
smoothSolver:  Solving for Uz, Initial residual = 4.6315352e-07, Final residual = 1.6585225e-08, No Iterations 3
GAMG:  Solving for p, Initial residual = 1.2978912e-05, Final residual = 8.4650153e-08, No Iterations 3
time step continuity errors : sum local = 1.4207289e-08, global = -3.1560012e-10, cumulative = 0.00029986891
ExecutionTime = 200.2317 s  ClockTime = 202 s

Time = 1209s

smoothSolver:  Solving for Ux, Initial residual = 1.1911568e-06, Final residual = 4.3587827e-08, No Iterations 3
smoothSolver:  Solving for Uy, Initial residual = 9.3007946e-06, Final residual = 3.4049416e-07, No Iterations 3
smoothSolver:  Solving for Uz, Initial residual = 4.5931249e-07, Final residual = 1.6447232e-08, No Iterations 3
GAMG:  Solving for p, Initial residual = 1.2860795e-05, Final residual = 8.3944315e-08, No Iterations 3
time step continuity errors : sum local = 1.4088826e-08, global = -2.7764844e-10, cumulative = 0.00029986863
ExecutionTime = 200.39531 s  ClockTime = 202 s

Time = 1210s

smoothSolver:  Solving for Ux, Initial residual = 1.1810149e-06, Final residual = 4.3212481e-08, No Iterations 3
smoothSolver:  Solving for Uy, Initial residual = 9.2175739e-06, Final residual = 3.3749371e-07, No Iterations 3
smoothSolver:  Solving for Uz, Initial residual = 4.5550031e-07, Final residual = 1.630999e-08, No Iterations 3
GAMG:  Solving for p, Initial residual = 1.2743334e-05, Final residual = 8.3219143e-08, No Iterations 3
time step continuity errors : sum local = 1.3967117e-08, global = -2.3504414e-10, cumulative = 0.00029986839
ExecutionTime = 200.55967 s  ClockTime = 202 s

Time = 1211s

smoothSolver:  Solving for Ux, Initial residual = 1.170884e-06, Final residual = 4.2831134e-08, No Iterations 3
smoothSolver:  Solving for Uy, Initial residual = 9.1356849e-06, Final residual = 3.3457037e-07, No Iterations 3
smoothSolver:  Solving for Uz, Initial residual = 4.5167182e-07, Final residual = 1.6175016e-08, No Iterations 3
GAMG:  Solving for p, Initial residual = 1.2629252e-05, Final residual = 8.2445386e-08, No Iterations 3
time step continuity errors : sum local = 1.3837254e-08, global = -1.8917257e-10, cumulative = 0.0002998682
ExecutionTime = 200.72303 s  ClockTime = 203 s

Time = 1212s

smoothSolver:  Solving for Ux, Initial residual = 1.1608655e-06, Final residual = 4.2449668e-08, No Iterations 3
smoothSolver:  Solving for Uy, Initial residual = 9.0549947e-06, Final residual = 3.3181131e-07, No Iterations 3
smoothSolver:  Solving for Uz, Initial residual = 4.4787446e-07, Final residual = 1.6040897e-08, No Iterations 3
GAMG:  Solving for p, Initial residual = 1.2516677e-05, Final residual = 8.1717935e-08, No Iterations 3
time step continuity errors : sum local = 1.3715163e-08, global = -1.4066804e-10, cumulative = 0.00029986806
ExecutionTime = 200.88946 s  ClockTime = 203 s

Time = 1213s

smoothSolver:  Solving for Ux, Initial residual = 1.1508446e-06, Final residual = 4.2067965e-08, No Iterations 3
smoothSolver:  Solving for Uy, Initial residual = 8.9751638e-06, Final residual = 3.290922e-07, No Iterations 3
smoothSolver:  Solving for Uz, Initial residual = 4.4408695e-07, Final residual = 1.5905829e-08, No Iterations 3
GAMG:  Solving for p, Initial residual = 1.2405554e-05, Final residual = 8.0980796e-08, No Iterations 3
time step continuity errors : sum local = 1.3591445e-08, global = -9.7921787e-11, cumulative = 0.00029986796
ExecutionTime = 201.05326 s  ClockTime = 203 s

Time = 1214s

smoothSolver:  Solving for Ux, Initial residual = 1.1409197e-06, Final residual = 4.1685906e-08, No Iterations 3
smoothSolver:  Solving for Uy, Initial residual = 8.8972497e-06, Final residual = 3.2637813e-07, No Iterations 3
smoothSolver:  Solving for Uz, Initial residual = 4.4036293e-07, Final residual = 1.5768862e-08, No Iterations 3
GAMG:  Solving for p, Initial residual = 1.2296452e-05, Final residual = 8.0243412e-08, No Iterations 3
time step continuity errors : sum local = 1.3467686e-08, global = -5.8202648e-11, cumulative = 0.00029986791
ExecutionTime = 201.21724 s  ClockTime = 203 s

Time = 1215s

smoothSolver:  Solving for Ux, Initial residual = 1.1311706e-06, Final residual = 4.1300808e-08, No Iterations 3
smoothSolver:  Solving for Uy, Initial residual = 8.8206082e-06, Final residual = 3.2370012e-07, No Iterations 3
smoothSolver:  Solving for Uz, Initial residual = 4.3669523e-07, Final residual = 1.5631368e-08, No Iterations 3
GAMG:  Solving for p, Initial residual = 1.2189295e-05, Final residual = 7.9460501e-08, No Iterations 3
time step continuity errors : sum local = 1.3336286e-08, global = -2.0855955e-11, cumulative = 0.00029986789
ExecutionTime = 201.38153 s  ClockTime = 203 s

Time = 1216s

smoothSolver:  Solving for Ux, Initial residual = 1.1214207e-06, Final residual = 4.091333e-08, No Iterations 3
smoothSolver:  Solving for Uy, Initial residual = 8.744631e-06, Final residual = 3.2105199e-07, No Iterations 3
smoothSolver:  Solving for Uz, Initial residual = 4.3312367e-07, Final residual = 1.5493809e-08, No Iterations 3
GAMG:  Solving for p, Initial residual = 1.2082313e-05, Final residual = 7.8655596e-08, No Iterations 3
time step continuity errors : sum local = 1.3201195e-08, global = 1.1914301e-11, cumulative = 0.0002998679
ExecutionTime = 201.54367 s  ClockTime = 203 s

Time = 1217s

smoothSolver:  Solving for Ux, Initial residual = 1.1117514e-06, Final residual = 4.0536684e-08, No Iterations 3
smoothSolver:  Solving for Uy, Initial residual = 8.6696087e-06, Final residual = 3.1844131e-07, No Iterations 3
smoothSolver:  Solving for Uz, Initial residual = 4.295365e-07, Final residual = 1.5356688e-08, No Iterations 3
GAMG:  Solving for p, Initial residual = 1.1975955e-05, Final residual = 7.7834777e-08, No Iterations 3
time step continuity errors : sum local = 1.3063432e-08, global = 4.1957032e-11, cumulative = 0.00029986794
ExecutionTime = 201.70596 s  ClockTime = 204 s

Time = 1218s

smoothSolver:  Solving for Ux, Initial residual = 1.1022153e-06, Final residual = 4.0165672e-08, No Iterations 3
smoothSolver:  Solving for Uy, Initial residual = 8.5951553e-06, Final residual = 3.1583277e-07, No Iterations 3
smoothSolver:  Solving for Uz, Initial residual = 4.2593796e-07, Final residual = 1.5221662e-08, No Iterations 3
GAMG:  Solving for p, Initial residual = 1.1870175e-05, Final residual = 7.7020429e-08, No Iterations 3
time step continuity errors : sum local = 1.2926756e-08, global = 7.0734409e-11, cumulative = 0.00029986801
ExecutionTime = 201.86749 s  ClockTime = 204 s

Time = 1219s

smoothSolver:  Solving for Ux, Initial residual = 1.0926957e-06, Final residual = 3.9799367e-08, No Iterations 3
smoothSolver:  Solving for Uy, Initial residual = 8.5222111e-06, Final residual = 3.1322558e-07, No Iterations 3
smoothSolver:  Solving for Uz, Initial residual = 4.2234722e-07, Final residual = 1.508942e-08, No Iterations 3
GAMG:  Solving for p, Initial residual = 1.1766314e-05, Final residual = 7.6261211e-08, No Iterations 3
time step continuity errors : sum local = 1.2799332e-08, global = 9.956347e-11, cumulative = 0.00029986811
ExecutionTime = 202.02995 s  ClockTime = 204 s

Time = 1220s

smoothSolver:  Solving for Ux, Initial residual = 1.0831341e-06, Final residual = 3.9438331e-08, No Iterations 3
smoothSolver:  Solving for Uy, Initial residual = 8.4501173e-06, Final residual = 3.1063567e-07, No Iterations 3
smoothSolver:  Solving for Uz, Initial residual = 4.1879885e-07, Final residual = 1.4958016e-08, No Iterations 3
GAMG:  Solving for p, Initial residual = 1.1665149e-05, Final residual = 7.5542795e-08, No Iterations 3
time step continuity errors : sum local = 1.2678756e-08, global = 1.2951935e-10, cumulative = 0.00029986824
ExecutionTime = 202.19347 s  ClockTime = 204 s

Time = 1221s

smoothSolver:  Solving for Ux, Initial residual = 1.0736611e-06, Final residual = 3.9083155e-08, No Iterations 3
smoothSolver:  Solving for Uy, Initial residual = 8.3782308e-06, Final residual = 3.0816336e-07, No Iterations 3
smoothSolver:  Solving for Uz, Initial residual = 4.1523559e-07, Final residual = 1.4828717e-08, No Iterations 3
GAMG:  Solving for p, Initial residual = 1.1567004e-05, Final residual = 7.4831557e-08, No Iterations 3
time step continuity errors : sum local = 1.2559385e-08, global = 1.6124474e-10, cumulative = 0.0002998684
ExecutionTime = 202.35604 s  ClockTime = 204 s

Time = 1222s

smoothSolver:  Solving for Ux, Initial residual = 1.0641706e-06, Final residual = 3.8733632e-08, No Iterations 3
smoothSolver:  Solving for Uy, Initial residual = 8.3070576e-06, Final residual = 3.0568558e-07, No Iterations 3
smoothSolver:  Solving for Uz, Initial residual = 4.1170535e-07, Final residual = 1.4703384e-08, No Iterations 3
GAMG:  Solving for p, Initial residual = 1.1469066e-05, Final residual = 7.4147427e-08, No Iterations 3
time step continuity errors : sum local = 1.2444563e-08, global = 1.9315835e-10, cumulative = 0.00029986859
ExecutionTime = 202.52315 s  ClockTime = 204 s

Time = 1223s

smoothSolver:  Solving for Ux, Initial residual = 1.0547178e-06, Final residual = 3.8397353e-08, No Iterations 3
smoothSolver:  Solving for Uy, Initial residual = 8.2358925e-06, Final residual = 3.0316421e-07, No Iterations 3
smoothSolver:  Solving for Uz, Initial residual = 4.0820998e-07, Final residual = 1.4582215e-08, No Iterations 3
GAMG:  Solving for p, Initial residual = 1.1370323e-05, Final residual = 7.3516629e-08, No Iterations 3
time step continuity errors : sum local = 1.2338692e-08, global = 2.2116283e-10, cumulative = 0.00029986881
ExecutionTime = 202.69769 s  ClockTime = 205 s

Time = 1224s

smoothSolver:  Solving for Ux, Initial residual = 1.0453898e-06, Final residual = 3.8063403e-08, No Iterations 3
smoothSolver:  Solving for Uy, Initial residual = 8.1662921e-06, Final residual = 3.0064784e-07, No Iterations 3
smoothSolver:  Solving for Uz, Initial residual = 4.0479591e-07, Final residual = 1.4463766e-08, No Iterations 3
GAMG:  Solving for p, Initial residual = 1.1272425e-05, Final residual = 7.2879065e-08, No Iterations 3
time step continuity errors : sum local = 1.2231686e-08, global = 2.4800399e-10, cumulative = 0.00029986906
ExecutionTime = 202.87549 s  ClockTime = 205 s

Time = 1225s

smoothSolver:  Solving for Ux, Initial residual = 1.0361739e-06, Final residual = 3.7733749e-08, No Iterations 3
smoothSolver:  Solving for Uy, Initial residual = 8.0971212e-06, Final residual = 2.980857e-07, No Iterations 3
smoothSolver:  Solving for Uz, Initial residual = 4.0141213e-07, Final residual = 1.4346067e-08, No Iterations 3
GAMG:  Solving for p, Initial residual = 1.1175482e-05, Final residual = 7.2264085e-08, No Iterations 3
time step continuity errors : sum local = 1.212847e-08, global = 2.6749001e-10, cumulative = 0.00029986933
ExecutionTime = 203.04067 s  ClockTime = 205 s

Time = 1226s

smoothSolver:  Solving for Ux, Initial residual = 1.0272016e-06, Final residual = 3.7414538e-08, No Iterations 3
smoothSolver:  Solving for Uy, Initial residual = 8.0287653e-06, Final residual = 2.9548008e-07, No Iterations 3
smoothSolver:  Solving for Uz, Initial residual = 3.9808562e-07, Final residual = 1.4231859e-08, No Iterations 3
GAMG:  Solving for p, Initial residual = 1.1079125e-05, Final residual = 7.1616664e-08, No Iterations 3
time step continuity errors : sum local = 1.2019809e-08, global = 2.8096483e-10, cumulative = 0.00029986961
ExecutionTime = 203.20456 s  ClockTime = 205 s

Time = 1227s

smoothSolver:  Solving for Ux, Initial residual = 1.0183883e-06, Final residual = 3.7103497e-08, No Iterations 3
smoothSolver:  Solving for Uy, Initial residual = 7.96112e-06, Final residual = 2.9289951e-07, No Iterations 3
smoothSolver:  Solving for Uz, Initial residual = 3.9480897e-07, Final residual = 1.4118354e-08, No Iterations 3
GAMG:  Solving for p, Initial residual = 1.0983262e-05, Final residual = 7.1037998e-08, No Iterations 3
time step continuity errors : sum local = 1.1922687e-08, global = 2.9050632e-10, cumulative = 0.0002998699
ExecutionTime = 203.3694 s  ClockTime = 205 s

Time = 1228s

smoothSolver:  Solving for Ux, Initial residual = 1.0094835e-06, Final residual = 3.6795033e-08, No Iterations 3
smoothSolver:  Solving for Uy, Initial residual = 7.8929806e-06, Final residual = 2.903294e-07, No Iterations 3
smoothSolver:  Solving for Uz, Initial residual = 3.9157567e-07, Final residual = 1.400519e-08, No Iterations 3
GAMG:  Solving for p, Initial residual = 1.0888446e-05, Final residual = 7.0456537e-08, No Iterations 3
time step continuity errors : sum local = 1.1825096e-08, global = 2.9338096e-10, cumulative = 0.0002998702
ExecutionTime = 203.53358 s  ClockTime = 205 s

Time = 1229s

smoothSolver:  Solving for Ux, Initial residual = 1.0006836e-06, Final residual = 3.6490476e-08, No Iterations 3
smoothSolver:  Solving for Uy, Initial residual = 7.8256615e-06, Final residual = 2.8772484e-07, No Iterations 3
smoothSolver:  Solving for Uz, Initial residual = 3.8837678e-07, Final residual = 1.3894284e-08, No Iterations 3
GAMG:  Solving for p, Initial residual = 1.0795506e-05, Final residual = 6.9891807e-08, No Iterations 3
time step continuity errors : sum local = 1.1730314e-08, global = 2.9209972e-10, cumulative = 0.00029987049
ExecutionTime = 203.69752 s  ClockTime = 206 s

Time = 1230s

smoothSolver:  Solving for Ux, Initial residual = 9.9215045e-07, Final residual = 3.6193154e-08, No Iterations 3
smoothSolver:  Solving for Uy, Initial residual = 7.758508e-06, Final residual = 2.8516388e-07, No Iterations 3
smoothSolver:  Solving for Uz, Initial residual = 3.8517502e-07, Final residual = 1.3785211e-08, No Iterations 3
GAMG:  Solving for p, Initial residual = 1.0705679e-05, Final residual = 6.9311464e-08, No Iterations 3
time step continuity errors : sum local = 1.1632911e-08, global = 2.8854032e-10, cumulative = 0.00029987078
ExecutionTime = 203.86212 s  ClockTime = 206 s

Time = 1231s

smoothSolver:  Solving for Ux, Initial residual = 9.8372014e-07, Final residual = 3.589807e-08, No Iterations 3
smoothSolver:  Solving for Uy, Initial residual = 7.6914783e-06, Final residual = 2.8261771e-07, No Iterations 3
smoothSolver:  Solving for Uz, Initial residual = 3.8198166e-07, Final residual = 1.3674877e-08, No Iterations 3
GAMG:  Solving for p, Initial residual = 1.0617122e-05, Final residual = 6.8723931e-08, No Iterations 3
time step continuity errors : sum local = 1.1534301e-08, global = 2.8405212e-10, cumulative = 0.00029987106
ExecutionTime = 204.0264 s  ClockTime = 206 s

Time = 1232s

smoothSolver:  Solving for Ux, Initial residual = 9.7543286e-07, Final residual = 3.5602771e-08, No Iterations 3
smoothSolver:  Solving for Uy, Initial residual = 7.6250834e-06, Final residual = 2.8008127e-07, No Iterations 3
smoothSolver:  Solving for Uz, Initial residual = 3.7883404e-07, Final residual = 1.3568526e-08, No Iterations 3
GAMG:  Solving for p, Initial residual = 1.0527417e-05, Final residual = 6.8160545e-08, No Iterations 3
time step continuity errors : sum local = 1.1439744e-08, global = 2.803587e-10, cumulative = 0.00029987134
ExecutionTime = 204.19104 s  ClockTime = 206 s

Time = 1233s

smoothSolver:  Solving for Ux, Initial residual = 9.6717846e-07, Final residual = 3.5310241e-08, No Iterations 3
smoothSolver:  Solving for Uy, Initial residual = 7.5594645e-06, Final residual = 2.775256e-07, No Iterations 3
smoothSolver:  Solving for Uz, Initial residual = 3.7573988e-07, Final residual = 1.3463199e-08, No Iterations 3
GAMG:  Solving for p, Initial residual = 1.0437469e-05, Final residual = 6.7582594e-08, No Iterations 3
time step continuity errors : sum local = 1.1342742e-08, global = 2.7703978e-10, cumulative = 0.00029987162
ExecutionTime = 204.35541 s  ClockTime = 206 s

Time = 1234s

smoothSolver:  Solving for Ux, Initial residual = 9.5894433e-07, Final residual = 3.5027676e-08, No Iterations 3
smoothSolver:  Solving for Uy, Initial residual = 7.4945488e-06, Final residual = 2.7500231e-07, No Iterations 3
smoothSolver:  Solving for Uz, Initial residual = 3.7264785e-07, Final residual = 1.3356908e-08, No Iterations 3
GAMG:  Solving for p, Initial residual = 1.0349301e-05, Final residual = 6.7014009e-08, No Iterations 3
time step continuity errors : sum local = 1.1247313e-08, global = 2.7594836e-10, cumulative = 0.00029987189
ExecutionTime = 204.51938 s  ClockTime = 206 s

Time = 1235s

smoothSolver:  Solving for Ux, Initial residual = 9.507626e-07, Final residual = 3.474637e-08, No Iterations 3
smoothSolver:  Solving for Uy, Initial residual = 7.4294593e-06, Final residual = 2.7249869e-07, No Iterations 3
smoothSolver:  Solving for Uz, Initial residual = 3.6956282e-07, Final residual = 1.3249303e-08, No Iterations 3
GAMG:  Solving for p, Initial residual = 1.0260593e-05, Final residual = 6.6445536e-08, No Iterations 3
time step continuity errors : sum local = 1.1151902e-08, global = 2.7545379e-10, cumulative = 0.00029987217
ExecutionTime = 204.68273 s  ClockTime = 207 s

Time = 1236s

smoothSolver:  Solving for Ux, Initial residual = 9.4260802e-07, Final residual = 3.4462934e-08, No Iterations 3
smoothSolver:  Solving for Uy, Initial residual = 7.3646562e-06, Final residual = 2.700257e-07, No Iterations 3
smoothSolver:  Solving for Uz, Initial residual = 3.6649214e-07, Final residual = 1.3139724e-08, No Iterations 3
GAMG:  Solving for p, Initial residual = 1.0172821e-05, Final residual = 6.590303e-08, No Iterations 3
time step continuity errors : sum local = 1.106085e-08, global = 2.7656152e-10, cumulative = 0.00029987245
ExecutionTime = 204.84294 s  ClockTime = 207 s

Time = 1237s

smoothSolver:  Solving for Ux, Initial residual = 9.3449948e-07, Final residual = 3.4180032e-08, No Iterations 3
smoothSolver:  Solving for Uy, Initial residual = 7.2996006e-06, Final residual = 2.6756759e-07, No Iterations 3
smoothSolver:  Solving for Uz, Initial residual = 3.6345165e-07, Final residual = 1.3029717e-08, No Iterations 3
GAMG:  Solving for p, Initial residual = 1.0086025e-05, Final residual = 6.5389727e-08, No Iterations 3
time step continuity errors : sum local = 1.0974699e-08, global = 2.7747981e-10, cumulative = 0.00029987272
ExecutionTime = 205.00573 s  ClockTime = 207 s

Time = 1238s

smoothSolver:  Solving for Ux, Initial residual = 9.2651337e-07, Final residual = 3.3891129e-08, No Iterations 3
smoothSolver:  Solving for Uy, Initial residual = 7.2354963e-06, Final residual = 2.6513142e-07, No Iterations 3
smoothSolver:  Solving for Uz, Initial residual = 3.6045083e-07, Final residual = 1.2920244e-08, No Iterations 3
GAMG:  Solving for p, Initial residual = 1.0000349e-05, Final residual = 6.4902294e-08, No Iterations 3
time step continuity errors : sum local = 1.0892889e-08, global = 2.7743549e-10, cumulative = 0.000299873
ExecutionTime = 205.1693 s  ClockTime = 207 s

Time = 1239s

smoothSolver:  Solving for Ux, Initial residual = 9.1873694e-07, Final residual = 3.3601731e-08, No Iterations 3
smoothSolver:  Solving for Uy, Initial residual = 7.1719956e-06, Final residual = 2.6272742e-07, No Iterations 3
smoothSolver:  Solving for Uz, Initial residual = 3.5746171e-07, Final residual = 1.2813015e-08, No Iterations 3
GAMG:  Solving for p, Initial residual = 9.9184404e-06, Final residual = 6.4420779e-08, No Iterations 3
time step continuity errors : sum local = 1.0812073e-08, global = 2.7578835e-10, cumulative = 0.00029987328
ExecutionTime = 205.33316 s  ClockTime = 207 s


SIMPLE solution converged in 1239 iterations

End

Finalising parallel run
