/*---------------------------------------------------------------------------*\
  =========                 |
  \\      /  F ield         | OpenFOAM: The Open Source CFD Toolbox
   \\    /   O peration     | Website:  https://openfoam.org
    \\  /    A nd           | Version:  11
     \\/     M anipulation  |
\*---------------------------------------------------------------------------*/
Build  : 11-e1fc8c682ae6
Exec   : foamRun -solver incompressibleFluid -parallel
Date   : Feb 09 2026
Time   : 03:22:38
Host   : "ip-172-31-18-192"
PID    : 133635
I/O    : uncollated
Case   : /home/ubuntu/cases/bifurcation_angle45_1000_ascii/Re300
nProcs : 16
Slaves : 
15
(
"ip-172-31-18-192.133636"
"ip-172-31-18-192.133637"
"ip-172-31-18-192.133638"
"ip-172-31-18-192.133639"
"ip-172-31-18-192.133640"
"ip-172-31-18-192.133641"
"ip-172-31-18-192.133642"
"ip-172-31-18-192.133643"
"ip-172-31-18-192.133644"
"ip-172-31-18-192.133645"
"ip-172-31-18-192.133646"
"ip-172-31-18-192.133647"
"ip-172-31-18-192.133648"
"ip-172-31-18-192.133649"
"ip-172-31-18-192.133650"
)

Pstream initialised with:
    floatTransfer      : false
    nProcsSimpleSum    : 0
    commsType          : nonBlocking
    polling iterations : 0
sigFpe : Enabling floating point exception trapping (FOAM_SIGFPE).
fileModificationChecking : Monitoring run-time modified files using timeStampMaster (fileModificationSkew 10)
allowSystemOperations : Allowing user-supplied system call operations

// * * * * * * * * * * * * * * * * * * * * * * * * * * * * * * * * * * * * * //
Create time

Create mesh for time = 0

Selecting solver incompressibleFluid
Selecting viscosity model Newtonian
Selecting turbulence model type laminar
Selecting laminar stress model Stokes
No MRF models present


SIMPLE: Convergence criteria found
        p: tolerance 1e-05
        U: tolerance 1e-05


SIMPLE: Operating solver in steady-state mode with 1 outer corrector
SIMPLE: Operating solver in SIMPLE mode



Starting time loop

wallShearStress wallShearStress:
    processing wall patches: 
        wall-fluid_domain

Time = 1s

smoothSolver:  Solving for Ux, Initial residual = 1, Final residual = 0.042612557, No Iterations 1
smoothSolver:  Solving for Uy, Initial residual = 1, Final residual = 0.050583545, No Iterations 1
smoothSolver:  Solving for Uz, Initial residual = 1, Final residual = 0.01460784, No Iterations 1
GAMG:  Solving for p, Initial residual = 1, Final residual = 0.0099144912, No Iterations 10
time step continuity errors : sum local = 0.00020088521, global = -2.8599787e-06, cumulative = -2.8599787e-06
ExecutionTime = 0.755451 s  ClockTime = 0 s

Time = 2s

smoothSolver:  Solving for Ux, Initial residual = 0.23856413, Final residual = 0.014721351, No Iterations 2
smoothSolver:  Solving for Uy, Initial residual = 0.34936022, Final residual = 0.016656801, No Iterations 2
smoothSolver:  Solving for Uz, Initial residual = 0.27182456, Final residual = 0.018937134, No Iterations 2
GAMG:  Solving for p, Initial residual = 0.36982109, Final residual = 0.0029908605, No Iterations 6
time step continuity errors : sum local = 0.0053740702, global = -0.00012217115, cumulative = -0.00012503113
ExecutionTime = 0.991224 s  ClockTime = 1 s

Time = 3s

smoothSolver:  Solving for Ux, Initial residual = 0.23951288, Final residual = 0.007805114, No Iterations 3
smoothSolver:  Solving for Uy, Initial residual = 0.13805965, Final residual = 0.0084024067, No Iterations 2
smoothSolver:  Solving for Uz, Initial residual = 0.54538901, Final residual = 0.019410194, No Iterations 3
GAMG:  Solving for p, Initial residual = 0.1608437, Final residual = 0.00078256696, No Iterations 3
time step continuity errors : sum local = 0.0069820886, global = 7.6928758e-05, cumulative = -4.8102367e-05
ExecutionTime = 1.199765 s  ClockTime = 1 s

Time = 4s

smoothSolver:  Solving for Ux, Initial residual = 0.15589694, Final residual = 0.0053079439, No Iterations 3
smoothSolver:  Solving for Uy, Initial residual = 0.073312877, Final residual = 0.0045064547, No Iterations 2
smoothSolver:  Solving for Uz, Initial residual = 0.39068706, Final residual = 0.013926613, No Iterations 3
GAMG:  Solving for p, Initial residual = 0.11117879, Final residual = 0.00092654396, No Iterations 5
time step continuity errors : sum local = 0.0084810986, global = -9.3181967e-06, cumulative = -5.7420564e-05
ExecutionTime = 1.429916 s  ClockTime = 1 s

Time = 5s

smoothSolver:  Solving for Ux, Initial residual = 0.078983321, Final residual = 0.0078374803, No Iterations 2
smoothSolver:  Solving for Uy, Initial residual = 0.17905457, Final residual = 0.012291204, No Iterations 2
smoothSolver:  Solving for Uz, Initial residual = 0.15102068, Final residual = 0.0053933926, No Iterations 3
GAMG:  Solving for p, Initial residual = 0.085343783, Final residual = 0.00079553279, No Iterations 6
time step continuity errors : sum local = 0.0038108722, global = 0.00012957187, cumulative = 7.215131e-05
ExecutionTime = 1.667915 s  ClockTime = 1 s

Time = 6s

smoothSolver:  Solving for Ux, Initial residual = 0.069405438, Final residual = 0.0057993673, No Iterations 2
smoothSolver:  Solving for Uy, Initial residual = 0.4053398, Final residual = 0.027227241, No Iterations 2
smoothSolver:  Solving for Uz, Initial residual = 0.062742832, Final residual = 0.0021679388, No Iterations 3
GAMG:  Solving for p, Initial residual = 0.45463976, Final residual = 0.0020695275, No Iterations 5
time step continuity errors : sum local = 0.0053366644, global = -7.0798751e-05, cumulative = 1.3525589e-06
ExecutionTime = 1.903761 s  ClockTime = 2 s

Time = 7s

smoothSolver:  Solving for Ux, Initial residual = 0.12121035, Final residual = 0.011836483, No Iterations 2
smoothSolver:  Solving for Uy, Initial residual = 0.26052366, Final residual = 0.016994896, No Iterations 2
smoothSolver:  Solving for Uz, Initial residual = 0.20620282, Final residual = 0.007358675, No Iterations 3
GAMG:  Solving for p, Initial residual = 0.27433492, Final residual = 0.0025538464, No Iterations 3
time step continuity errors : sum local = 0.012679004, global = -0.00019741679, cumulative = -0.00019606423
ExecutionTime = 2.104133 s  ClockTime = 2 s

Time = 8s

smoothSolver:  Solving for Ux, Initial residual = 0.11232635, Final residual = 0.0036642498, No Iterations 3
smoothSolver:  Solving for Uy, Initial residual = 0.13866382, Final residual = 0.009414339, No Iterations 2
smoothSolver:  Solving for Uz, Initial residual = 0.22626409, Final residual = 0.0080697105, No Iterations 3
GAMG:  Solving for p, Initial residual = 0.21461084, Final residual = 0.0011044179, No Iterations 5
time step continuity errors : sum local = 0.0047314389, global = 1.0790302e-05, cumulative = -0.00018527393
ExecutionTime = 2.328404 s  ClockTime = 2 s

Time = 9s

smoothSolver:  Solving for Ux, Initial residual = 0.060260983, Final residual = 0.0057757038, No Iterations 2
smoothSolver:  Solving for Uy, Initial residual = 0.24590978, Final residual = 0.019294496, No Iterations 2
smoothSolver:  Solving for Uz, Initial residual = 0.084095041, Final residual = 0.0029595206, No Iterations 3
GAMG:  Solving for p, Initial residual = 0.21374915, Final residual = 0.0010141196, No Iterations 6
time step continuity errors : sum local = 0.0017682075, global = -3.9597128e-05, cumulative = -0.00022487106
ExecutionTime = 2.562162 s  ClockTime = 2 s

Time = 10s

smoothSolver:  Solving for Ux, Initial residual = 0.062244877, Final residual = 0.0056760166, No Iterations 2
smoothSolver:  Solving for Uy, Initial residual = 0.401475, Final residual = 0.029257832, No Iterations 2
smoothSolver:  Solving for Uz, Initial residual = 0.072087609, Final residual = 0.0025684885, No Iterations 3
GAMG:  Solving for p, Initial residual = 0.32430224, Final residual = 0.0030783935, No Iterations 4
time step continuity errors : sum local = 0.0050064468, global = -5.2367246e-05, cumulative = -0.0002772383
ExecutionTime = 2.773473 s  ClockTime = 2 s

Time = 11s

smoothSolver:  Solving for Ux, Initial residual = 0.068533531, Final residual = 0.0067990741, No Iterations 2
smoothSolver:  Solving for Uy, Initial residual = 0.24043849, Final residual = 0.016434076, No Iterations 2
smoothSolver:  Solving for Uz, Initial residual = 0.11611007, Final residual = 0.0041552445, No Iterations 3
GAMG:  Solving for p, Initial residual = 0.23372905, Final residual = 0.0015213726, No Iterations 4
time step continuity errors : sum local = 0.0037212599, global = 8.4767432e-06, cumulative = -0.00026876156
ExecutionTime = 2.982813 s  ClockTime = 3 s

Time = 12s

smoothSolver:  Solving for Ux, Initial residual = 0.045068735, Final residual = 0.0014907087, No Iterations 3
smoothSolver:  Solving for Uy, Initial residual = 0.15184138, Final residual = 0.011868734, No Iterations 2
smoothSolver:  Solving for Uz, Initial residual = 0.080036789, Final residual = 0.0028627106, No Iterations 3
GAMG:  Solving for p, Initial residual = 0.18400372, Final residual = 0.0012866123, No Iterations 5
time step continuity errors : sum local = 0.0023963535, global = -1.3125608e-05, cumulative = -0.00028188717
ExecutionTime = 3.206123 s  ClockTime = 3 s

Time = 13s

smoothSolver:  Solving for Ux, Initial residual = 0.022191269, Final residual = 0.0020231551, No Iterations 2
smoothSolver:  Solving for Uy, Initial residual = 0.30990245, Final residual = 0.025785483, No Iterations 2
smoothSolver:  Solving for Uz, Initial residual = 0.018317263, Final residual = 0.00059855371, No Iterations 3
GAMG:  Solving for p, Initial residual = 0.28004401, Final residual = 0.0011881478, No Iterations 6
time step continuity errors : sum local = 0.00076064281, global = 1.8615973e-05, cumulative = -0.00026327119
ExecutionTime = 3.441927 s  ClockTime = 3 s

Time = 14s

smoothSolver:  Solving for Ux, Initial residual = 0.02939737, Final residual = 0.0027823524, No Iterations 2
smoothSolver:  Solving for Uy, Initial residual = 0.34547344, Final residual = 0.026631107, No Iterations 2
smoothSolver:  Solving for Uz, Initial residual = 0.0372254, Final residual = 0.0013250589, No Iterations 3
GAMG:  Solving for p, Initial residual = 0.31089943, Final residual = 0.002213216, No Iterations 4
time step continuity errors : sum local = 0.0020289496, global = 1.345594e-05, cumulative = -0.00024981525
ExecutionTime = 3.654007 s  ClockTime = 3 s

Time = 15s

smoothSolver:  Solving for Ux, Initial residual = 0.032211455, Final residual = 0.0010127518, No Iterations 3
smoothSolver:  Solving for Uy, Initial residual = 0.19172332, Final residual = 0.013748075, No Iterations 2
smoothSolver:  Solving for Uz, Initial residual = 0.05361452, Final residual = 0.0019100781, No Iterations 3
GAMG:  Solving for p, Initial residual = 0.23472055, Final residual = 0.0018706434, No Iterations 4
time step continuity errors : sum local = 0.0021320166, global = -1.6888122e-05, cumulative = -0.00026670338
ExecutionTime = 3.869132 s  ClockTime = 4 s

Time = 16s

smoothSolver:  Solving for Ux, Initial residual = 0.021487598, Final residual = 0.00070448129, No Iterations 3
smoothSolver:  Solving for Uy, Initial residual = 0.14947886, Final residual = 0.012678272, No Iterations 2
smoothSolver:  Solving for Uz, Initial residual = 0.035050179, Final residual = 0.0012426111, No Iterations 3
GAMG:  Solving for p, Initial residual = 0.18706196, Final residual = 0.0015399591, No Iterations 5
time step continuity errors : sum local = 0.001169006, global = 6.2825834e-06, cumulative = -0.00026042079
ExecutionTime = 4.093801 s  ClockTime = 4 s

Time = 17s

smoothSolver:  Solving for Ux, Initial residual = 0.011986926, Final residual = 0.0010376837, No Iterations 2
smoothSolver:  Solving for Uy, Initial residual = 0.28560556, Final residual = 0.024174348, No Iterations 2
smoothSolver:  Solving for Uz, Initial residual = 0.0073838054, Final residual = 0.00066878343, No Iterations 2
GAMG:  Solving for p, Initial residual = 0.49160638, Final residual = 0.004165559, No Iterations 5
time step continuity errors : sum local = 0.00081428742, global = 1.7845144e-06, cumulative = -0.00025863628
ExecutionTime = 4.317354 s  ClockTime = 4 s

Time = 18s

smoothSolver:  Solving for Ux, Initial residual = 0.016816952, Final residual = 0.0016489247, No Iterations 2
smoothSolver:  Solving for Uy, Initial residual = 0.25814774, Final residual = 0.020356484, No Iterations 2
smoothSolver:  Solving for Uz, Initial residual = 0.022642742, Final residual = 0.00081744478, No Iterations 3
GAMG:  Solving for p, Initial residual = 0.24716852, Final residual = 0.0013848743, No Iterations 4
time step continuity errors : sum local = 0.00078846282, global = -8.8043871e-06, cumulative = -0.00026744067
ExecutionTime = 4.528164 s  ClockTime = 4 s

Time = 19s

smoothSolver:  Solving for Ux, Initial residual = 0.015037404, Final residual = 0.0004894444, No Iterations 3
smoothSolver:  Solving for Uy, Initial residual = 0.14473971, Final residual = 0.011045067, No Iterations 2
smoothSolver:  Solving for Uz, Initial residual = 0.024777615, Final residual = 0.00089307297, No Iterations 3
GAMG:  Solving for p, Initial residual = 0.19411501, Final residual = 0.0019128243, No Iterations 4
time step continuity errors : sum local = 0.0011548676, global = 1.4073204e-05, cumulative = -0.00025336746
ExecutionTime = 4.742877 s  ClockTime = 4 s

Time = 20s

smoothSolver:  Solving for Ux, Initial residual = 0.0092613846, Final residual = 0.00030908112, No Iterations 3
smoothSolver:  Solving for Uy, Initial residual = 0.13995441, Final residual = 0.012582308, No Iterations 2
smoothSolver:  Solving for Uz, Initial residual = 0.013058979, Final residual = 0.00047015056, No Iterations 3
GAMG:  Solving for p, Initial residual = 0.1445137, Final residual = 0.0014019594, No Iterations 5
time step continuity errors : sum local = 0.00054910368, global = -4.1965286e-06, cumulative = -0.00025756399
ExecutionTime = 4.967307 s  ClockTime = 5 s

Time = 21s

smoothSolver:  Solving for Ux, Initial residual = 0.0063472563, Final residual = 0.00056946075, No Iterations 2
smoothSolver:  Solving for Uy, Initial residual = 0.20592888, Final residual = 0.017752648, No Iterations 2
smoothSolver:  Solving for Uz, Initial residual = 0.0043438621, Final residual = 0.00041558215, No Iterations 2
GAMG:  Solving for p, Initial residual = 0.36058256, Final residual = 0.0022775274, No Iterations 5
time step continuity errors : sum local = 0.00033391377, global = -6.4977423e-07, cumulative = -0.00025821377
ExecutionTime = 5.186292 s  ClockTime = 5 s

Time = 22s

smoothSolver:  Solving for Ux, Initial residual = 0.0079754518, Final residual = 0.00077633476, No Iterations 2
smoothSolver:  Solving for Uy, Initial residual = 0.16291104, Final residual = 0.013152814, No Iterations 2
smoothSolver:  Solving for Uz, Initial residual = 0.01123312, Final residual = 0.00039527522, No Iterations 3
GAMG:  Solving for p, Initial residual = 0.23483163, Final residual = 0.0013314012, No Iterations 4
time step continuity errors : sum local = 0.00039200533, global = -3.4459724e-06, cumulative = -0.00026165974
ExecutionTime = 5.39521 s  ClockTime = 5 s

Time = 23s

smoothSolver:  Solving for Ux, Initial residual = 0.0066261166, Final residual = 0.00020979772, No Iterations 3
smoothSolver:  Solving for Uy, Initial residual = 0.091625656, Final residual = 0.0073688101, No Iterations 2
smoothSolver:  Solving for Uz, Initial residual = 0.010933834, Final residual = 0.00038406594, No Iterations 3
GAMG:  Solving for p, Initial residual = 0.1846871, Final residual = 0.00091108601, No Iterations 5
time step continuity errors : sum local = 0.00025690099, global = 1.4536274e-06, cumulative = -0.00026020611
ExecutionTime = 5.617871 s  ClockTime = 5 s

Time = 24s

smoothSolver:  Solving for Ux, Initial residual = 0.0039953989, Final residual = 0.00039208372, No Iterations 2
smoothSolver:  Solving for Uy, Initial residual = 0.10206543, Final residual = 0.0093635122, No Iterations 2
smoothSolver:  Solving for Uz, Initial residual = 0.0045989759, Final residual = 0.0001542669, No Iterations 3
GAMG:  Solving for p, Initial residual = 0.15160847, Final residual = 0.00061252663, No Iterations 6
time step continuity errors : sum local = 9.8932143e-05, global = -2.6027513e-06, cumulative = -0.00026280886
ExecutionTime = 5.851804 s  ClockTime = 6 s

Time = 25s

smoothSolver:  Solving for Ux, Initial residual = 0.0041597602, Final residual = 0.00040685179, No Iterations 2
smoothSolver:  Solving for Uy, Initial residual = 0.12409626, Final residual = 0.010893227, No Iterations 2
smoothSolver:  Solving for Uz, Initial residual = 0.0040773508, Final residual = 0.00014288819, No Iterations 3
GAMG:  Solving for p, Initial residual = 0.15895521, Final residual = 0.00071732833, No Iterations 5
time step continuity errors : sum local = 0.00013056416, global = -2.5861983e-07, cumulative = -0.00026306748
ExecutionTime = 6.072762 s  ClockTime = 6 s

Time = 26s

smoothSolver:  Solving for Ux, Initial residual = 0.0045257194, Final residual = 0.00014680475, No Iterations 3
smoothSolver:  Solving for Uy, Initial residual = 0.091404993, Final residual = 0.0077777256, No Iterations 2
smoothSolver:  Solving for Uz, Initial residual = 0.0063930504, Final residual = 0.00023247981, No Iterations 3
GAMG:  Solving for p, Initial residual = 0.1377023, Final residual = 0.0010173245, No Iterations 4
time step continuity errors : sum local = 0.00024264604, global = 3.0245305e-07, cumulative = -0.00026276503
ExecutionTime = 6.285136 s  ClockTime = 6 s

Time = 27s

smoothSolver:  Solving for Ux, Initial residual = 0.0035756551, Final residual = 0.00012119523, No Iterations 3
smoothSolver:  Solving for Uy, Initial residual = 0.057541953, Final residual = 0.0052673839, No Iterations 2
smoothSolver:  Solving for Uz, Initial residual = 0.0053647343, Final residual = 0.00019431187, No Iterations 3
GAMG:  Solving for p, Initial residual = 0.0994767, Final residual = 0.000597429, No Iterations 5
time step continuity errors : sum local = 0.00013193304, global = -9.311506e-07, cumulative = -0.00026369618
ExecutionTime = 6.508913 s  ClockTime = 6 s

Time = 28s

smoothSolver:  Solving for Ux, Initial residual = 0.0027933883, Final residual = 9.1153021e-05, No Iterations 3
smoothSolver:  Solving for Uy, Initial residual = 0.066208795, Final residual = 0.0062647051, No Iterations 2
smoothSolver:  Solving for Uz, Initial residual = 0.0030180087, Final residual = 0.00010435949, No Iterations 3
GAMG:  Solving for p, Initial residual = 0.074333913, Final residual = 0.00069157738, No Iterations 5
time step continuity errors : sum local = 0.00011144321, global = -7.3853193e-07, cumulative = -0.00026443471
ExecutionTime = 6.734393 s  ClockTime = 6 s

Time = 29s

smoothSolver:  Solving for Ux, Initial residual = 0.0024252667, Final residual = 0.00023602621, No Iterations 2
smoothSolver:  Solving for Uy, Initial residual = 0.069080906, Final residual = 0.0062694384, No Iterations 2
smoothSolver:  Solving for Uz, Initial residual = 0.0023934851, Final residual = 7.7461667e-05, No Iterations 3
GAMG:  Solving for p, Initial residual = 0.14114765, Final residual = 0.0011753166, No Iterations 4
time step continuity errors : sum local = 0.00013509241, global = 8.2903097e-07, cumulative = -0.00026360568
ExecutionTime = 6.946301 s  ClockTime = 7 s

Time = 30s

smoothSolver:  Solving for Ux, Initial residual = 0.0021505205, Final residual = 0.00021133776, No Iterations 2
smoothSolver:  Solving for Uy, Initial residual = 0.050083013, Final residual = 0.0045508635, No Iterations 2
smoothSolver:  Solving for Uz, Initial residual = 0.0028762146, Final residual = 9.6957337e-05, No Iterations 3
GAMG:  Solving for p, Initial residual = 0.1231474, Final residual = 0.00094576384, No Iterations 4
time step continuity errors : sum local = 0.00012446277, global = -3.7709108e-07, cumulative = -0.00026398277
ExecutionTime = 7.155316 s  ClockTime = 7 s

Time = 31s

smoothSolver:  Solving for Ux, Initial residual = 0.0018484356, Final residual = 5.8935947e-05, No Iterations 3
smoothSolver:  Solving for Uy, Initial residual = 0.038157946, Final residual = 0.0037558343, No Iterations 2
smoothSolver:  Solving for Uz, Initial residual = 0.0022855736, Final residual = 7.6006035e-05, No Iterations 3
GAMG:  Solving for p, Initial residual = 0.089007007, Final residual = 0.00054202568, No Iterations 5
time step continuity errors : sum local = 6.3493265e-05, global = 3.0435315e-07, cumulative = -0.00026367842
ExecutionTime = 7.378994 s  ClockTime = 7 s

Time = 32s

smoothSolver:  Solving for Ux, Initial residual = 0.0019852415, Final residual = 6.4953366e-05, No Iterations 3
smoothSolver:  Solving for Uy, Initial residual = 0.043101138, Final residual = 0.0042352871, No Iterations 2
smoothSolver:  Solving for Uz, Initial residual = 0.0021857844, Final residual = 7.4568219e-05, No Iterations 3
GAMG:  Solving for p, Initial residual = 0.054337931, Final residual = 0.00036065482, No Iterations 5
time step continuity errors : sum local = 4.7402785e-05, global = 8.7119511e-08, cumulative = -0.0002635913
ExecutionTime = 7.607091 s  ClockTime = 7 s

Time = 33s

smoothSolver:  Solving for Ux, Initial residual = 0.0021073809, Final residual = 7.0066528e-05, No Iterations 3
smoothSolver:  Solving for Uy, Initial residual = 0.041591499, Final residual = 0.0040244038, No Iterations 2
smoothSolver:  Solving for Uz, Initial residual = 0.0026349702, Final residual = 9.2568717e-05, No Iterations 3
GAMG:  Solving for p, Initial residual = 0.056980896, Final residual = 0.00038157005, No Iterations 4
time step continuity errors : sum local = 5.8959081e-05, global = -3.8238462e-07, cumulative = -0.00026397368
ExecutionTime = 7.819845 s  ClockTime = 8 s

Time = 34s

smoothSolver:  Solving for Ux, Initial residual = 0.0019884815, Final residual = 6.7565477e-05, No Iterations 3
smoothSolver:  Solving for Uy, Initial residual = 0.03301676, Final residual = 0.0010424675, No Iterations 3
smoothSolver:  Solving for Uz, Initial residual = 0.0027186575, Final residual = 9.6088536e-05, No Iterations 3
GAMG:  Solving for p, Initial residual = 0.049795228, Final residual = 0.00042675767, No Iterations 4
time step continuity errors : sum local = 6.8435461e-05, global = 5.8863727e-07, cumulative = -0.00026338505
ExecutionTime = 8.033514 s  ClockTime = 8 s

Time = 35s

smoothSolver:  Solving for Ux, Initial residual = 0.0018246227, Final residual = 6.2410058e-05, No Iterations 3
smoothSolver:  Solving for Uy, Initial residual = 0.029283136, Final residual = 0.00096865559, No Iterations 3
smoothSolver:  Solving for Uz, Initial residual = 0.0024335924, Final residual = 8.5129242e-05, No Iterations 3
GAMG:  Solving for p, Initial residual = 0.036035276, Final residual = 0.00020780798, No Iterations 5
time step continuity errors : sum local = 3.1612752e-05, global = -2.4936048e-07, cumulative = -0.00026363441
ExecutionTime = 8.259207 s  ClockTime = 8 s

Time = 36s

smoothSolver:  Solving for Ux, Initial residual = 0.0017057665, Final residual = 5.7325329e-05, No Iterations 3
smoothSolver:  Solving for Uy, Initial residual = 0.030030675, Final residual = 0.00097330879, No Iterations 3
smoothSolver:  Solving for Uz, Initial residual = 0.0020962879, Final residual = 7.2145871e-05, No Iterations 3
GAMG:  Solving for p, Initial residual = 0.036659484, Final residual = 0.00015686164, No Iterations 5
time step continuity errors : sum local = 2.1775136e-05, global = -8.5081553e-08, cumulative = -0.00026371949
ExecutionTime = 8.482696 s  ClockTime = 8 s

Time = 37s

smoothSolver:  Solving for Ux, Initial residual = 0.001597223, Final residual = 5.3201687e-05, No Iterations 3
smoothSolver:  Solving for Uy, Initial residual = 0.027968369, Final residual = 0.00090553776, No Iterations 3
smoothSolver:  Solving for Uz, Initial residual = 0.0019291894, Final residual = 6.5752069e-05, No Iterations 3
GAMG:  Solving for p, Initial residual = 0.044250682, Final residual = 0.00025154461, No Iterations 4
time step continuity errors : sum local = 3.2765524e-05, global = 2.4045333e-07, cumulative = -0.00026347903
ExecutionTime = 8.697123 s  ClockTime = 8 s

Time = 38s

smoothSolver:  Solving for Ux, Initial residual = 0.0015279258, Final residual = 5.1385209e-05, No Iterations 3
smoothSolver:  Solving for Uy, Initial residual = 0.024746147, Final residual = 0.00082906357, No Iterations 3
smoothSolver:  Solving for Uz, Initial residual = 0.0018956211, Final residual = 6.4710391e-05, No Iterations 3
GAMG:  Solving for p, Initial residual = 0.039367898, Final residual = 0.00028701062, No Iterations 4
time step continuity errors : sum local = 3.7330531e-05, global = -1.4098133e-07, cumulative = -0.00026362002
ExecutionTime = 8.911327 s  ClockTime = 9 s

Time = 39s

smoothSolver:  Solving for Ux, Initial residual = 0.0015284647, Final residual = 5.1910379e-05, No Iterations 3
smoothSolver:  Solving for Uy, Initial residual = 0.024065066, Final residual = 0.00081718232, No Iterations 3
smoothSolver:  Solving for Uz, Initial residual = 0.001933738, Final residual = 6.6527315e-05, No Iterations 3
GAMG:  Solving for p, Initial residual = 0.030128431, Final residual = 0.00027423359, No Iterations 4
time step continuity errors : sum local = 3.7157287e-05, global = -2.2668987e-07, cumulative = -0.00026384671
ExecutionTime = 9.124159 s  ClockTime = 9 s

Time = 40s

smoothSolver:  Solving for Ux, Initial residual = 0.0015469644, Final residual = 5.2816209e-05, No Iterations 3
smoothSolver:  Solving for Uy, Initial residual = 0.024080637, Final residual = 0.00081275706, No Iterations 3
smoothSolver:  Solving for Uz, Initial residual = 0.0020079318, Final residual = 6.9676077e-05, No Iterations 3
GAMG:  Solving for p, Initial residual = 0.027394539, Final residual = 0.00019218217, No Iterations 4
time step continuity errors : sum local = 2.7345996e-05, global = -7.5040387e-08, cumulative = -0.00026392175
ExecutionTime = 9.344777 s  ClockTime = 9 s

Time = 41s

smoothSolver:  Solving for Ux, Initial residual = 0.0015308246, Final residual = 5.2540217e-05, No Iterations 3
smoothSolver:  Solving for Uy, Initial residual = 0.022939392, Final residual = 0.00077874251, No Iterations 3
smoothSolver:  Solving for Uz, Initial residual = 0.0020447977, Final residual = 7.1297264e-05, No Iterations 3
GAMG:  Solving for p, Initial residual = 0.026943978, Final residual = 0.00016157741, No Iterations 4
time step continuity errors : sum local = 2.3666736e-05, global = 2.3128591e-07, cumulative = -0.00026369046
ExecutionTime = 9.565448 s  ClockTime = 9 s

Time = 42s

smoothSolver:  Solving for Ux, Initial residual = 0.0014899099, Final residual = 5.1304964e-05, No Iterations 3
smoothSolver:  Solving for Uy, Initial residual = 0.021624966, Final residual = 0.00074348655, No Iterations 3
smoothSolver:  Solving for Uz, Initial residual = 0.0020122842, Final residual = 7.0169706e-05, No Iterations 3
GAMG:  Solving for p, Initial residual = 0.024866361, Final residual = 0.00018646517, No Iterations 4
time step continuity errors : sum local = 2.7412633e-05, global = 1.7733259e-07, cumulative = -0.00026351313
ExecutionTime = 9.787644 s  ClockTime = 10 s

Time = 43s

smoothSolver:  Solving for Ux, Initial residual = 0.001445755, Final residual = 4.9691171e-05, No Iterations 3
smoothSolver:  Solving for Uy, Initial residual = 0.020973222, Final residual = 0.00072292145, No Iterations 3
smoothSolver:  Solving for Uz, Initial residual = 0.0019323633, Final residual = 6.7167665e-05, No Iterations 3
GAMG:  Solving for p, Initial residual = 0.02346832, Final residual = 0.00018483034, No Iterations 4
time step continuity errors : sum local = 2.678414e-05, global = 2.1156584e-07, cumulative = -0.00026330156
ExecutionTime = 10.009703 s  ClockTime = 10 s

Time = 44s

smoothSolver:  Solving for Ux, Initial residual = 0.0014070119, Final residual = 4.8200875e-05, No Iterations 3
smoothSolver:  Solving for Uy, Initial residual = 0.02047501, Final residual = 0.00070422279, No Iterations 3
smoothSolver:  Solving for Uz, Initial residual = 0.0018561304, Final residual = 6.4305828e-05, No Iterations 3
GAMG:  Solving for p, Initial residual = 0.024111922, Final residual = 0.00016950758, No Iterations 4
time step continuity errors : sum local = 2.416606e-05, global = 1.2255382e-07, cumulative = -0.00026317901
ExecutionTime = 10.229723 s  ClockTime = 10 s

Time = 45s

smoothSolver:  Solving for Ux, Initial residual = 0.001376378, Final residual = 4.7137034e-05, No Iterations 3
smoothSolver:  Solving for Uy, Initial residual = 0.019805153, Final residual = 0.00068290167, No Iterations 3
smoothSolver:  Solving for Uz, Initial residual = 0.0018110822, Final residual = 6.2672273e-05, No Iterations 3
GAMG:  Solving for p, Initial residual = 0.024175548, Final residual = 0.00018156781, No Iterations 3
time step continuity errors : sum local = 2.5731285e-05, global = -3.8967537e-08, cumulative = -0.00026321798
ExecutionTime = 10.436777 s  ClockTime = 10 s

Time = 46s

smoothSolver:  Solving for Ux, Initial residual = 0.0013567435, Final residual = 4.6544192e-05, No Iterations 3
smoothSolver:  Solving for Uy, Initial residual = 0.019250114, Final residual = 0.00066605173, No Iterations 3
smoothSolver:  Solving for Uz, Initial residual = 0.001791147, Final residual = 6.2037817e-05, No Iterations 3
GAMG:  Solving for p, Initial residual = 0.022931757, Final residual = 0.00013991988, No Iterations 4
time step continuity errors : sum local = 1.9938108e-05, global = -8.3988187e-08, cumulative = -0.00026330196
ExecutionTime = 10.656364 s  ClockTime = 10 s

Time = 47s

smoothSolver:  Solving for Ux, Initial residual = 0.0013446696, Final residual = 4.6214113e-05, No Iterations 3
smoothSolver:  Solving for Uy, Initial residual = 0.018886982, Final residual = 0.00065358337, No Iterations 3
smoothSolver:  Solving for Uz, Initial residual = 0.0017884525, Final residual = 6.208073e-05, No Iterations 3
GAMG:  Solving for p, Initial residual = 0.02158197, Final residual = 0.00013389522, No Iterations 4
time step continuity errors : sum local = 1.9333472e-05, global = -8.1965052e-08, cumulative = -0.00026338393
ExecutionTime = 10.869905 s  ClockTime = 11 s

Time = 48s

smoothSolver:  Solving for Ux, Initial residual = 0.0013318377, Final residual = 4.5837117e-05, No Iterations 3
smoothSolver:  Solving for Uy, Initial residual = 0.018502579, Final residual = 0.00064011561, No Iterations 3
smoothSolver:  Solving for Uz, Initial residual = 0.001786568, Final residual = 6.2147377e-05, No Iterations 3
GAMG:  Solving for p, Initial residual = 0.020924638, Final residual = 0.00010307291, No Iterations 4
time step continuity errors : sum local = 1.5079705e-05, global = -5.097875e-08, cumulative = -0.00026343491
ExecutionTime = 11.082238 s  ClockTime = 11 s

Time = 49s

smoothSolver:  Solving for Ux, Initial residual = 0.0013144978, Final residual = 4.5279786e-05, No Iterations 3
smoothSolver:  Solving for Uy, Initial residual = 0.018036722, Final residual = 0.00062490339, No Iterations 3
smoothSolver:  Solving for Uz, Initial residual = 0.00177329, Final residual = 6.175173e-05, No Iterations 3
GAMG:  Solving for p, Initial residual = 0.020445407, Final residual = 0.00018862024, No Iterations 3
time step continuity errors : sum local = 2.7814878e-05, global = 5.148564e-07, cumulative = -0.00026292005
ExecutionTime = 11.289064 s  ClockTime = 11 s

Time = 50s

smoothSolver:  Solving for Ux, Initial residual = 0.0012964096, Final residual = 4.4667563e-05, No Iterations 3
smoothSolver:  Solving for Uy, Initial residual = 0.017594868, Final residual = 0.00061019613, No Iterations 3
smoothSolver:  Solving for Uz, Initial residual = 0.0017508242, Final residual = 6.0990306e-05, No Iterations 3
GAMG:  Solving for p, Initial residual = 0.019940482, Final residual = 0.00015105466, No Iterations 4
time step continuity errors : sum local = 2.2363519e-05, global = 1.9388764e-07, cumulative = -0.00026272616
ExecutionTime = 11.501881 s  ClockTime = 11 s

Time = 51s

smoothSolver:  Solving for Ux, Initial residual = 0.0012770286, Final residual = 4.3952315e-05, No Iterations 3
smoothSolver:  Solving for Uy, Initial residual = 0.017235041, Final residual = 0.0005976273, No Iterations 3
smoothSolver:  Solving for Uz, Initial residual = 0.0017178019, Final residual = 5.9789705e-05, No Iterations 3
GAMG:  Solving for p, Initial residual = 0.019700675, Final residual = 0.00014447966, No Iterations 4
time step continuity errors : sum local = 2.1358013e-05, global = 1.80705e-07, cumulative = -0.00026254546
ExecutionTime = 11.716907 s  ClockTime = 11 s

Time = 52s

smoothSolver:  Solving for Ux, Initial residual = 0.0012595636, Final residual = 4.3311024e-05, No Iterations 3
smoothSolver:  Solving for Uy, Initial residual = 0.016893434, Final residual = 0.00058551395, No Iterations 3
smoothSolver:  Solving for Uz, Initial residual = 0.0016861767, Final residual = 5.8649083e-05, No Iterations 3
GAMG:  Solving for p, Initial residual = 0.01965129, Final residual = 0.00013392438, No Iterations 4
time step continuity errors : sum local = 1.9766239e-05, global = 1.6440316e-07, cumulative = -0.00026238106
ExecutionTime = 11.929331 s  ClockTime = 12 s

Time = 53s

smoothSolver:  Solving for Ux, Initial residual = 0.0012449443, Final residual = 4.2796151e-05, No Iterations 3
smoothSolver:  Solving for Uy, Initial residual = 0.016538863, Final residual = 0.00057339435, No Iterations 3
smoothSolver:  Solving for Uz, Initial residual = 0.0016617461, Final residual = 5.7799244e-05, No Iterations 3
GAMG:  Solving for p, Initial residual = 0.019421515, Final residual = 0.0001255699, No Iterations 3
time step continuity errors : sum local = 1.8557294e-05, global = 2.4407631e-07, cumulative = -0.00026213698
ExecutionTime = 12.131328 s  ClockTime = 12 s

Time = 54s

smoothSolver:  Solving for Ux, Initial residual = 0.0012326552, Final residual = 4.2391018e-05, No Iterations 3
smoothSolver:  Solving for Uy, Initial residual = 0.016179463, Final residual = 0.00056127245, No Iterations 3
smoothSolver:  Solving for Uz, Initial residual = 0.0016437779, Final residual = 5.7215275e-05, No Iterations 3
GAMG:  Solving for p, Initial residual = 0.018989118, Final residual = 0.00013981502, No Iterations 3
time step continuity errors : sum local = 2.075384e-05, global = 1.7214936e-09, cumulative = -0.00026213526
ExecutionTime = 12.333691 s  ClockTime = 12 s

Time = 55s

smoothSolver:  Solving for Ux, Initial residual = 0.0012217255, Final residual = 4.202989e-05, No Iterations 3
smoothSolver:  Solving for Uy, Initial residual = 0.015846969, Final residual = 0.00054992378, No Iterations 3
smoothSolver:  Solving for Uz, Initial residual = 0.0016276512, Final residual = 5.6696756e-05, No Iterations 3
GAMG:  Solving for p, Initial residual = 0.018632768, Final residual = 0.00016465746, No Iterations 3
time step continuity errors : sum local = 2.4563309e-05, global = -1.0059008e-08, cumulative = -0.00026214532
ExecutionTime = 12.535683 s  ClockTime = 12 s

Time = 56s

smoothSolver:  Solving for Ux, Initial residual = 0.0012116044, Final residual = 4.1695872e-05, No Iterations 3
smoothSolver:  Solving for Uy, Initial residual = 0.015530868, Final residual = 0.00053902699, No Iterations 3
smoothSolver:  Solving for Uz, Initial residual = 0.0016127465, Final residual = 5.6221765e-05, No Iterations 3
GAMG:  Solving for p, Initial residual = 0.018357674, Final residual = 0.00016299153, No Iterations 3
time step continuity errors : sum local = 2.4443491e-05, global = 1.213092e-07, cumulative = -0.00026202401
ExecutionTime = 12.745346 s  ClockTime = 13 s

Time = 57s

smoothSolver:  Solving for Ux, Initial residual = 0.0012019196, Final residual = 4.1373684e-05, No Iterations 3
smoothSolver:  Solving for Uy, Initial residual = 0.015224861, Final residual = 0.00052844444, No Iterations 3
smoothSolver:  Solving for Uz, Initial residual = 0.001597593, Final residual = 5.5733907e-05, No Iterations 3
GAMG:  Solving for p, Initial residual = 0.018081189, Final residual = 0.00015557546, No Iterations 3
time step continuity errors : sum local = 2.3443836e-05, global = 3.7069757e-07, cumulative = -0.00026165331
ExecutionTime = 12.954109 s  ClockTime = 13 s

Time = 58s

smoothSolver:  Solving for Ux, Initial residual = 0.0011926332, Final residual = 4.1059979e-05, No Iterations 3
smoothSolver:  Solving for Uy, Initial residual = 0.014931142, Final residual = 0.00051827301, No Iterations 3
smoothSolver:  Solving for Uz, Initial residual = 0.0015817393, Final residual = 5.5210247e-05, No Iterations 3
GAMG:  Solving for p, Initial residual = 0.017819149, Final residual = 0.0001207491, No Iterations 4
time step continuity errors : sum local = 1.82705e-05, global = 2.117916e-07, cumulative = -0.00026144152
ExecutionTime = 13.167937 s  ClockTime = 13 s

Time = 59s

smoothSolver:  Solving for Ux, Initial residual = 0.001183138, Final residual = 4.0722232e-05, No Iterations 3
smoothSolver:  Solving for Uy, Initial residual = 0.014660603, Final residual = 0.00050885235, No Iterations 3
smoothSolver:  Solving for Uz, Initial residual = 0.0015643156, Final residual = 5.4610075e-05, No Iterations 3
GAMG:  Solving for p, Initial residual = 0.017600268, Final residual = 0.00012765591, No Iterations 4
time step continuity errors : sum local = 1.9365927e-05, global = 1.8236737e-07, cumulative = -0.00026125915
ExecutionTime = 13.382326 s  ClockTime = 13 s

Time = 60s

smoothSolver:  Solving for Ux, Initial residual = 0.0011739833, Final residual = 4.0394528e-05, No Iterations 3
smoothSolver:  Solving for Uy, Initial residual = 0.014387882, Final residual = 0.00049937291, No Iterations 3
smoothSolver:  Solving for Uz, Initial residual = 0.0015453492, Final residual = 5.3948321e-05, No Iterations 3
GAMG:  Solving for p, Initial residual = 0.017382738, Final residual = 0.00011795479, No Iterations 4
time step continuity errors : sum local = 1.7927474e-05, global = 1.3887678e-07, cumulative = -0.00026112027
ExecutionTime = 13.597183 s  ClockTime = 13 s

Time = 61s

smoothSolver:  Solving for Ux, Initial residual = 0.0011656933, Final residual = 4.0099217e-05, No Iterations 3
smoothSolver:  Solving for Uy, Initial residual = 0.014110275, Final residual = 0.00048975433, No Iterations 3
smoothSolver:  Solving for Uz, Initial residual = 0.0015264883, Final residual = 5.3291231e-05, No Iterations 3
GAMG:  Solving for p, Initial residual = 0.017180397, Final residual = 0.00013835058, No Iterations 3
time step continuity errors : sum local = 2.1069186e-05, global = 3.1067302e-07, cumulative = -0.0002608096
ExecutionTime = 13.800293 s  ClockTime = 14 s

Time = 62s

smoothSolver:  Solving for Ux, Initial residual = 0.0011579021, Final residual = 3.9831251e-05, No Iterations 3
smoothSolver:  Solving for Uy, Initial residual = 0.013820965, Final residual = 0.00047979659, No Iterations 3
smoothSolver:  Solving for Uz, Initial residual = 0.0015103984, Final residual = 5.2748237e-05, No Iterations 3
GAMG:  Solving for p, Initial residual = 0.016947562, Final residual = 0.0001384399, No Iterations 3
time step continuity errors : sum local = 2.1153812e-05, global = 2.8409198e-07, cumulative = -0.00026052551
ExecutionTime = 14.001883 s  ClockTime = 14 s

Time = 63s

smoothSolver:  Solving for Ux, Initial residual = 0.001151354, Final residual = 3.9602861e-05, No Iterations 3
smoothSolver:  Solving for Uy, Initial residual = 0.013548433, Final residual = 0.00047034452, No Iterations 3
smoothSolver:  Solving for Uz, Initial residual = 0.00149498, Final residual = 5.2226759e-05, No Iterations 3
GAMG:  Solving for p, Initial residual = 0.016759501, Final residual = 0.00014985414, No Iterations 3
time step continuity errors : sum local = 2.297684e-05, global = 3.2410865e-07, cumulative = -0.0002602014
ExecutionTime = 14.203965 s  ClockTime = 14 s

Time = 64s

smoothSolver:  Solving for Ux, Initial residual = 0.0011459427, Final residual = 3.9414166e-05, No Iterations 3
smoothSolver:  Solving for Uy, Initial residual = 0.013301158, Final residual = 0.00046166179, No Iterations 3
smoothSolver:  Solving for Uz, Initial residual = 0.001479999, Final residual = 5.1717806e-05, No Iterations 3
GAMG:  Solving for p, Initial residual = 0.016560011, Final residual = 0.00016417317, No Iterations 3
time step continuity errors : sum local = 2.5256477e-05, global = 4.0928918e-07, cumulative = -0.00025979211
ExecutionTime = 14.403821 s  ClockTime = 14 s

Time = 65s

smoothSolver:  Solving for Ux, Initial residual = 0.0011410104, Final residual = 3.9243027e-05, No Iterations 3
smoothSolver:  Solving for Uy, Initial residual = 0.013073717, Final residual = 0.00045362936, No Iterations 3
smoothSolver:  Solving for Uz, Initial residual = 0.0014653413, Final residual = 5.1219494e-05, No Iterations 3
GAMG:  Solving for p, Initial residual = 0.016405671, Final residual = 0.00011399957, No Iterations 4
time step continuity errors : sum local = 1.7594185e-05, global = 2.0052505e-07, cumulative = -0.00025959159
ExecutionTime = 14.623674 s  ClockTime = 14 s

Time = 66s

smoothSolver:  Solving for Ux, Initial residual = 0.0011358567, Final residual = 3.9055871e-05, No Iterations 3
smoothSolver:  Solving for Uy, Initial residual = 0.012864853, Final residual = 0.0004463213, No Iterations 3
smoothSolver:  Solving for Uz, Initial residual = 0.0014506797, Final residual = 5.0713122e-05, No Iterations 3
GAMG:  Solving for p, Initial residual = 0.016290159, Final residual = 0.00015265428, No Iterations 3
time step continuity errors : sum local = 2.3618012e-05, global = 4.6610115e-07, cumulative = -0.00025912549
ExecutionTime = 14.829448 s  ClockTime = 15 s

Time = 67s

smoothSolver:  Solving for Ux, Initial residual = 0.0011295135, Final residual = 3.8841283e-05, No Iterations 3
smoothSolver:  Solving for Uy, Initial residual = 0.0126315, Final residual = 0.00043840498, No Iterations 3
smoothSolver:  Solving for Uz, Initial residual = 0.0014370579, Final residual = 5.0257628e-05, No Iterations 3
GAMG:  Solving for p, Initial residual = 0.016091232, Final residual = 0.00014809781, No Iterations 3
time step continuity errors : sum local = 2.2984459e-05, global = 4.8110679e-07, cumulative = -0.00025864438
ExecutionTime = 15.033731 s  ClockTime = 15 s

Time = 68s

smoothSolver:  Solving for Ux, Initial residual = 0.0011229703, Final residual = 3.8624519e-05, No Iterations 3
smoothSolver:  Solving for Uy, Initial residual = 0.012392477, Final residual = 0.00043031035, No Iterations 3
smoothSolver:  Solving for Uz, Initial residual = 0.0014236517, Final residual = 4.9812086e-05, No Iterations 3
GAMG:  Solving for p, Initial residual = 0.015897912, Final residual = 0.00015035294, No Iterations 3
time step continuity errors : sum local = 2.3406054e-05, global = 4.9330408e-07, cumulative = -0.00025815107
ExecutionTime = 15.234892 s  ClockTime = 15 s

Time = 69s

smoothSolver:  Solving for Ux, Initial residual = 0.0011167047, Final residual = 3.8429183e-05, No Iterations 3
smoothSolver:  Solving for Uy, Initial residual = 0.012156412, Final residual = 0.00042229214, No Iterations 3
smoothSolver:  Solving for Uz, Initial residual = 0.0014101798, Final residual = 4.9369025e-05, No Iterations 3
GAMG:  Solving for p, Initial residual = 0.015715275, Final residual = 0.00015582223, No Iterations 3
time step continuity errors : sum local = 2.4328905e-05, global = 4.9066407e-07, cumulative = -0.00025766041
ExecutionTime = 15.438754 s  ClockTime = 15 s

Time = 70s

smoothSolver:  Solving for Ux, Initial residual = 0.0011111177, Final residual = 3.826139e-05, No Iterations 3
smoothSolver:  Solving for Uy, Initial residual = 0.011929735, Final residual = 0.00041461234, No Iterations 3
smoothSolver:  Solving for Uz, Initial residual = 0.0013966758, Final residual = 4.8926104e-05, No Iterations 3
GAMG:  Solving for p, Initial residual = 0.015563475, Final residual = 0.00010987069, No Iterations 4
time step continuity errors : sum local = 1.7202785e-05, global = 1.8458136e-07, cumulative = -0.00025747583
ExecutionTime = 15.653083 s  ClockTime = 15 s

Time = 71s

smoothSolver:  Solving for Ux, Initial residual = 0.0011063985, Final residual = 3.8118039e-05, No Iterations 3
smoothSolver:  Solving for Uy, Initial residual = 0.011723991, Final residual = 0.00040760011, No Iterations 3
smoothSolver:  Solving for Uz, Initial residual = 0.001382734, Final residual = 4.8460945e-05, No Iterations 3
GAMG:  Solving for p, Initial residual = 0.015457673, Final residual = 0.00013618611, No Iterations 3
time step continuity errors : sum local = 2.1368388e-05, global = 3.7657747e-07, cumulative = -0.00025709925
ExecutionTime = 15.853986 s  ClockTime = 16 s

Time = 72s

smoothSolver:  Solving for Ux, Initial residual = 0.0011014659, Final residual = 3.7976671e-05, No Iterations 3
smoothSolver:  Solving for Uy, Initial residual = 0.011513159, Final residual = 0.00040056319, No Iterations 3
smoothSolver:  Solving for Uz, Initial residual = 0.0013699875, Final residual = 4.8050534e-05, No Iterations 3
GAMG:  Solving for p, Initial residual = 0.015267391, Final residual = 0.0001352032, No Iterations 3
time step continuity errors : sum local = 2.1276715e-05, global = 3.2530312e-07, cumulative = -0.00025677395
ExecutionTime = 16.055955 s  ClockTime = 16 s

Time = 73s

smoothSolver:  Solving for Ux, Initial residual = 0.0010969186, Final residual = 3.7843069e-05, No Iterations 3
smoothSolver:  Solving for Uy, Initial residual = 0.011314508, Final residual = 0.00039380403, No Iterations 3
smoothSolver:  Solving for Uz, Initial residual = 0.0013575323, Final residual = 4.7645903e-05, No Iterations 3
GAMG:  Solving for p, Initial residual = 0.015098979, Final residual = 0.00014023836, No Iterations 3
time step continuity errors : sum local = 2.2134217e-05, global = 3.1172961e-07, cumulative = -0.00025646222
ExecutionTime = 16.259278 s  ClockTime = 16 s

Time = 74s

smoothSolver:  Solving for Ux, Initial residual = 0.0010926484, Final residual = 3.7714623e-05, No Iterations 3
smoothSolver:  Solving for Uy, Initial residual = 0.011121539, Final residual = 0.00038731278, No Iterations 3
smoothSolver:  Solving for Uz, Initial residual = 0.0013452203, Final residual = 4.724453e-05, No Iterations 3
GAMG:  Solving for p, Initial residual = 0.01496719, Final residual = 0.00014672196, No Iterations 3
time step continuity errors : sum local = 2.3224091e-05, global = 3.2732514e-07, cumulative = -0.00025613489
ExecutionTime = 16.460642 s  ClockTime = 16 s

Time = 75s

smoothSolver:  Solving for Ux, Initial residual = 0.0010885432, Final residual = 3.7582853e-05, No Iterations 3
smoothSolver:  Solving for Uy, Initial residual = 0.010933056, Final residual = 0.00038097171, No Iterations 3
smoothSolver:  Solving for Uz, Initial residual = 0.0013330903, Final residual = 4.6842346e-05, No Iterations 3
GAMG:  Solving for p, Initial residual = 0.014868474, Final residual = 9.6376721e-05, No Iterations 4
time step continuity errors : sum local = 1.5297176e-05, global = 1.4539415e-07, cumulative = -0.0002559895
ExecutionTime = 16.676309 s  ClockTime = 16 s

Time = 76s

smoothSolver:  Solving for Ux, Initial residual = 0.0010848058, Final residual = 3.7456968e-05, No Iterations 3
smoothSolver:  Solving for Uy, Initial residual = 0.010754995, Final residual = 0.00037497925, No Iterations 3
smoothSolver:  Solving for Uz, Initial residual = 0.0013207852, Final residual = 4.6425541e-05, No Iterations 3
GAMG:  Solving for p, Initial residual = 0.014804579, Final residual = 0.00012882193, No Iterations 3
time step continuity errors : sum local = 2.0490726e-05, global = 3.3200683e-07, cumulative = -0.00025565749
ExecutionTime = 16.878394 s  ClockTime = 17 s

Time = 77s

smoothSolver:  Solving for Ux, Initial residual = 0.0010800932, Final residual = 3.7301532e-05, No Iterations 3
smoothSolver:  Solving for Uy, Initial residual = 0.010568933, Final residual = 0.00036879888, No Iterations 3
smoothSolver:  Solving for Uz, Initial residual = 0.0013094691, Final residual = 4.6051286e-05, No Iterations 3
GAMG:  Solving for p, Initial residual = 0.014677104, Final residual = 0.00012643212, No Iterations 3
time step continuity errors : sum local = 2.0166858e-05, global = 3.53512e-07, cumulative = -0.00025530398
ExecutionTime = 17.0866 s  ClockTime = 17 s

Time = 78s

smoothSolver:  Solving for Ux, Initial residual = 0.0010756035, Final residual = 3.7160354e-05, No Iterations 3
smoothSolver:  Solving for Uy, Initial residual = 0.010388692, Final residual = 0.00036283523, No Iterations 3
smoothSolver:  Solving for Uz, Initial residual = 0.001298353, Final residual = 4.5684519e-05, No Iterations 3
GAMG:  Solving for p, Initial residual = 0.014561455, Final residual = 0.00013161371, No Iterations 3
time step continuity errors : sum local = 2.1051876e-05, global = 3.7438388e-07, cumulative = -0.0002549296
ExecutionTime = 17.295121 s  ClockTime = 17 s

Time = 79s

smoothSolver:  Solving for Ux, Initial residual = 0.0010715687, Final residual = 3.7037695e-05, No Iterations 3
smoothSolver:  Solving for Uy, Initial residual = 0.010215294, Final residual = 0.00035708445, No Iterations 3
smoothSolver:  Solving for Uz, Initial residual = 0.0012872723, Final residual = 4.5318357e-05, No Iterations 3
GAMG:  Solving for p, Initial residual = 0.014466158, Final residual = 0.00013918059, No Iterations 3
time step continuity errors : sum local = 2.2321389e-05, global = 3.8662184e-07, cumulative = -0.00025454297
ExecutionTime = 17.498407 s  ClockTime = 17 s

Time = 80s

smoothSolver:  Solving for Ux, Initial residual = 0.0010678711, Final residual = 3.693217e-05, No Iterations 3
smoothSolver:  Solving for Uy, Initial residual = 0.010044978, Final residual = 0.00035145635, No Iterations 3
smoothSolver:  Solving for Uz, Initial residual = 0.0012761534, Final residual = 4.4950791e-05, No Iterations 3
GAMG:  Solving for p, Initial residual = 0.014340438, Final residual = 9.2751209e-05, No Iterations 4
time step continuity errors : sum local = 1.4912927e-05, global = 1.6030071e-07, cumulative = -0.00025438267
ExecutionTime = 17.712085 s  ClockTime = 18 s

Time = 81s

smoothSolver:  Solving for Ux, Initial residual = 0.0010643889, Final residual = 3.6830062e-05, No Iterations 3
smoothSolver:  Solving for Uy, Initial residual = 0.0098777531, Final residual = 0.00034592891, No Iterations 3
smoothSolver:  Solving for Uz, Initial residual = 0.0012646926, Final residual = 4.4561888e-05, No Iterations 3
GAMG:  Solving for p, Initial residual = 0.014219895, Final residual = 0.00012343664, No Iterations 3
time step continuity errors : sum local = 1.9885799e-05, global = 3.1236572e-07, cumulative = -0.00025407031
ExecutionTime = 17.921397 s  ClockTime = 18 s

Time = 82s

smoothSolver:  Solving for Ux, Initial residual = 0.0010600535, Final residual = 3.6704058e-05, No Iterations 3
smoothSolver:  Solving for Uy, Initial residual = 0.0097045704, Final residual = 0.00034017444, No Iterations 3
smoothSolver:  Solving for Uz, Initial residual = 0.0012538202, Final residual = 4.4202542e-05, No Iterations 3
GAMG:  Solving for p, Initial residual = 0.014069785, Final residual = 0.0001206608, No Iterations 3
time step continuity errors : sum local = 1.9488525e-05, global = 2.7697252e-07, cumulative = -0.00025379334
ExecutionTime = 18.127921 s  ClockTime = 18 s

Time = 83s

smoothSolver:  Solving for Ux, Initial residual = 0.001055661, Final residual = 3.6575976e-05, No Iterations 3
smoothSolver:  Solving for Uy, Initial residual = 0.0095363338, Final residual = 0.00033450079, No Iterations 3
smoothSolver:  Solving for Uz, Initial residual = 0.0012430956, Final residual = 4.3846784e-05, No Iterations 3
GAMG:  Solving for p, Initial residual = 0.013938384, Final residual = 0.00012381212, No Iterations 3
time step continuity errors : sum local = 2.0049076e-05, global = 2.7485553e-07, cumulative = -0.00025351848
ExecutionTime = 18.33027 s  ClockTime = 18 s

Time = 84s

smoothSolver:  Solving for Ux, Initial residual = 0.0010515581, Final residual = 3.6456491e-05, No Iterations 3
smoothSolver:  Solving for Uy, Initial residual = 0.0093799406, Final residual = 0.0003291312, No Iterations 3
smoothSolver:  Solving for Uz, Initial residual = 0.0012325108, Final residual = 4.3497441e-05, No Iterations 3
GAMG:  Solving for p, Initial residual = 0.01381745, Final residual = 0.00012976448, No Iterations 3
time step continuity errors : sum local = 2.1066411e-05, global = 2.7811699e-07, cumulative = -0.00025324036
ExecutionTime = 18.532848 s  ClockTime = 18 s

Time = 85s

smoothSolver:  Solving for Ux, Initial residual = 0.0010478834, Final residual = 3.635372e-05, No Iterations 3
smoothSolver:  Solving for Uy, Initial residual = 0.0092370262, Final residual = 0.00032418759, No Iterations 3
smoothSolver:  Solving for Uz, Initial residual = 0.0012221537, Final residual = 4.3156434e-05, No Iterations 3
GAMG:  Solving for p, Initial residual = 0.013692175, Final residual = 0.00013437714, No Iterations 3
time step continuity errors : sum local = 2.1869044e-05, global = 3.0016613e-07, cumulative = -0.0002529402
ExecutionTime = 18.735361 s  ClockTime = 19 s

Time = 86s

smoothSolver:  Solving for Ux, Initial residual = 0.0010445509, Final residual = 3.6264153e-05, No Iterations 3
smoothSolver:  Solving for Uy, Initial residual = 0.0091029137, Final residual = 0.00031957723, No Iterations 3
smoothSolver:  Solving for Uz, Initial residual = 0.0012120447, Final residual = 4.2825754e-05, No Iterations 3
GAMG:  Solving for p, Initial residual = 0.013612894, Final residual = 8.4610604e-05, No Iterations 4
time step continuity errors : sum local = 1.3802881e-05, global = 1.3338886e-07, cumulative = -0.00025280681
ExecutionTime = 18.948933 s  ClockTime = 19 s

Time = 87s

smoothSolver:  Solving for Ux, Initial residual = 0.0010417548, Final residual = 3.6192435e-05, No Iterations 3
smoothSolver:  Solving for Uy, Initial residual = 0.0089768566, Final residual = 0.00031532921, No Iterations 3
smoothSolver:  Solving for Uz, Initial residual = 0.0012019672, Final residual = 4.2493214e-05, No Iterations 3
GAMG:  Solving for p, Initial residual = 0.013594244, Final residual = 0.0001154319, No Iterations 3
time step continuity errors : sum local = 1.8868331e-05, global = 2.8146376e-07, cumulative = -0.00025252534
ExecutionTime = 19.151276 s  ClockTime = 19 s

Time = 88s

smoothSolver:  Solving for Ux, Initial residual = 0.0010380433, Final residual = 3.610083e-05, No Iterations 3
smoothSolver:  Solving for Uy, Initial residual = 0.0088448017, Final residual = 0.00031099579, No Iterations 3
smoothSolver:  Solving for Uz, Initial residual = 0.0011924741, Final residual = 4.2193863e-05, No Iterations 3
GAMG:  Solving for p, Initial residual = 0.013502677, Final residual = 0.00011293566, No Iterations 3
time step continuity errors : sum local = 1.8507994e-05, global = 2.8083555e-07, cumulative = -0.00025224451
ExecutionTime = 19.352484 s  ClockTime = 19 s

Time = 89s

smoothSolver:  Solving for Ux, Initial residual = 0.0010344645, Final residual = 3.6013489e-05, No Iterations 3
smoothSolver:  Solving for Uy, Initial residual = 0.0087116762, Final residual = 0.00030654639, No Iterations 3
smoothSolver:  Solving for Uz, Initial residual = 0.0011830805, Final residual = 4.1897059e-05, No Iterations 3
GAMG:  Solving for p, Initial residual = 0.013407932, Final residual = 0.00011734566, No Iterations 3
time step continuity errors : sum local = 1.9280926e-05, global = 2.9435442e-07, cumulative = -0.00025195015
ExecutionTime = 19.555897 s  ClockTime = 19 s

Time = 90s

smoothSolver:  Solving for Ux, Initial residual = 0.0010311239, Final residual = 3.5931753e-05, No Iterations 3
smoothSolver:  Solving for Uy, Initial residual = 0.0085768228, Final residual = 0.0003019118, No Iterations 3
smoothSolver:  Solving for Uz, Initial residual = 0.0011736363, Final residual = 4.1596836e-05, No Iterations 3
GAMG:  Solving for p, Initial residual = 0.013289928, Final residual = 0.00012470401, No Iterations 3
time step continuity errors : sum local = 2.0542133e-05, global = 3.0927658e-07, cumulative = -0.00025164088
ExecutionTime = 19.758914 s  ClockTime = 20 s

Time = 91s

smoothSolver:  Solving for Ux, Initial residual = 0.0010278652, Final residual = 3.5849871e-05, No Iterations 3
smoothSolver:  Solving for Uy, Initial residual = 0.0084402193, Final residual = 0.00029713294, No Iterations 3
smoothSolver:  Solving for Uz, Initial residual = 0.0011641348, Final residual = 4.1292143e-05, No Iterations 3
GAMG:  Solving for p, Initial residual = 0.013176661, Final residual = 0.00013101997, No Iterations 3
time step continuity errors : sum local = 2.1634624e-05, global = 3.1648743e-07, cumulative = -0.00025132439
ExecutionTime = 19.962026 s  ClockTime = 20 s

Time = 92s

smoothSolver:  Solving for Ux, Initial residual = 0.0010244889, Final residual = 3.5757777e-05, No Iterations 3
smoothSolver:  Solving for Uy, Initial residual = 0.0083032224, Final residual = 0.00029227459, No Iterations 3
smoothSolver:  Solving for Uz, Initial residual = 0.0011546218, Final residual = 4.098376e-05, No Iterations 3
GAMG:  Solving for p, Initial residual = 0.013070125, Final residual = 8.252348e-05, No Iterations 4
time step continuity errors : sum local = 1.3657833e-05, global = 1.3349239e-07, cumulative = -0.0002511909
ExecutionTime = 20.175211 s  ClockTime = 20 s

Time = 93s

smoothSolver:  Solving for Ux, Initial residual = 0.0010210886, Final residual = 3.5653974e-05, No Iterations 3
smoothSolver:  Solving for Uy, Initial residual = 0.0081693962, Final residual = 0.00028757326, No Iterations 3
smoothSolver:  Solving for Uz, Initial residual = 0.0011449555, Final residual = 4.0662331e-05, No Iterations 3
GAMG:  Solving for p, Initial residual = 0.013023506, Final residual = 0.00011221988, No Iterations 3
time step continuity errors : sum local = 1.8606679e-05, global = 2.5415403e-07, cumulative = -0.00025093674
ExecutionTime = 20.375461 s  ClockTime = 20 s

Time = 94s

smoothSolver:  Solving for Ux, Initial residual = 0.0010170479, Final residual = 3.5525909e-05, No Iterations 3
smoothSolver:  Solving for Uy, Initial residual = 0.0080420071, Final residual = 0.00028315113, No Iterations 3
smoothSolver:  Solving for Uz, Initial residual = 0.0011359778, Final residual = 4.0370948e-05, No Iterations 3
GAMG:  Solving for p, Initial residual = 0.012910244, Final residual = 0.00010823982, No Iterations 3
time step continuity errors : sum local = 1.7988622e-05, global = 2.3222913e-07, cumulative = -0.00025070452
ExecutionTime = 20.578765 s  ClockTime = 20 s

Time = 95s

smoothSolver:  Solving for Ux, Initial residual = 0.0010132826, Final residual = 3.540126e-05, No Iterations 3
smoothSolver:  Solving for Uy, Initial residual = 0.0079251985, Final residual = 0.00027910091, No Iterations 3
smoothSolver:  Solving for Uz, Initial residual = 0.0011272327, Final residual = 4.0084974e-05, No Iterations 3
GAMG:  Solving for p, Initial residual = 0.012816223, Final residual = 0.00011167454, No Iterations 3
time step continuity errors : sum local = 1.8603096e-05, global = 2.2953034e-07, cumulative = -0.00025047498
ExecutionTime = 20.780832 s  ClockTime = 21 s

Time = 96s

smoothSolver:  Solving for Ux, Initial residual = 0.0010100533, Final residual = 3.5290895e-05, No Iterations 3
smoothSolver:  Solving for Uy, Initial residual = 0.0078168602, Final residual = 0.00027538681, No Iterations 3
smoothSolver:  Solving for Uz, Initial residual = 0.0011185618, Final residual = 3.9798887e-05, No Iterations 3
GAMG:  Solving for p, Initial residual = 0.012768156, Final residual = 0.00011799159, No Iterations 3
time step continuity errors : sum local = 1.9701641e-05, global = 2.3549834e-07, cumulative = -0.00025023949
ExecutionTime = 20.983413 s  ClockTime = 21 s

Time = 97s

smoothSolver:  Solving for Ux, Initial residual = 0.001007244, Final residual = 3.5202906e-05, No Iterations 3
smoothSolver:  Solving for Uy, Initial residual = 0.0077159491, Final residual = 0.00027181958, No Iterations 3
smoothSolver:  Solving for Uz, Initial residual = 0.0011099431, Final residual = 3.9516807e-05, No Iterations 3
GAMG:  Solving for p, Initial residual = 0.012728407, Final residual = 0.00012309266, No Iterations 3
time step continuity errors : sum local = 2.0599976e-05, global = 2.4330356e-07, cumulative = -0.00024999618
ExecutionTime = 21.184133 s  ClockTime = 21 s

Time = 98s

smoothSolver:  Solving for Ux, Initial residual = 0.0010045379, Final residual = 3.511989e-05, No Iterations 3
smoothSolver:  Solving for Uy, Initial residual = 0.0076148416, Final residual = 0.00026812822, No Iterations 3
smoothSolver:  Solving for Uz, Initial residual = 0.0011013895, Final residual = 3.9235051e-05, No Iterations 3
GAMG:  Solving for p, Initial residual = 0.012683042, Final residual = 0.00012523063, No Iterations 3
time step continuity errors : sum local = 2.1004622e-05, global = 2.5765241e-07, cumulative = -0.00024973853
ExecutionTime = 21.387161 s  ClockTime = 21 s

Time = 99s

smoothSolver:  Solving for Ux, Initial residual = 0.0010016295, Final residual = 3.5024557e-05, No Iterations 3
smoothSolver:  Solving for Uy, Initial residual = 0.0075096487, Final residual = 0.000264234, No Iterations 3
smoothSolver:  Solving for Uz, Initial residual = 0.0010929082, Final residual = 3.8951164e-05, No Iterations 3
GAMG:  Solving for p, Initial residual = 0.01263485, Final residual = 0.00012442591, No Iterations 3
time step continuity errors : sum local = 2.0915715e-05, global = 2.6498103e-07, cumulative = -0.00024947355
ExecutionTime = 21.589079 s  ClockTime = 21 s

Time = 100s

smoothSolver:  Solving for Ux, Initial residual = 0.0009984209, Final residual = 3.491566e-05, No Iterations 3
smoothSolver:  Solving for Uy, Initial residual = 0.0074017673, Final residual = 0.00026026386, No Iterations 3
smoothSolver:  Solving for Uz, Initial residual = 0.0010845358, Final residual = 3.8667694e-05, No Iterations 3
GAMG:  Solving for p, Initial residual = 0.012562754, Final residual = 0.00012144097, No Iterations 3
time step continuity errors : sum local = 2.0458286e-05, global = 2.7251602e-07, cumulative = -0.00024920103
ExecutionTime = 21.790774 s  ClockTime = 22 s

Time = 101s

smoothSolver:  Solving for Ux, Initial residual = 0.00099499956, Final residual = 3.4796039e-05, No Iterations 3
smoothSolver:  Solving for Uy, Initial residual = 0.0072978574, Final residual = 0.00025642524, No Iterations 3
smoothSolver:  Solving for Uz, Initial residual = 0.0010762699, Final residual = 3.8384375e-05, No Iterations 3
GAMG:  Solving for p, Initial residual = 0.012487004, Final residual = 0.00011788915, No Iterations 3
time step continuity errors : sum local = 1.990293e-05, global = 2.7421138e-07, cumulative = -0.00024892682
ExecutionTime = 21.993501 s  ClockTime = 22 s

Time = 102s

smoothSolver:  Solving for Ux, Initial residual = 0.00099152723, Final residual = 3.4676201e-05, No Iterations 3
smoothSolver:  Solving for Uy, Initial residual = 0.007198985, Final residual = 0.00025287311, No Iterations 3
smoothSolver:  Solving for Uz, Initial residual = 0.0010681016, Final residual = 3.8104431e-05, No Iterations 3
GAMG:  Solving for p, Initial residual = 0.01241575, Final residual = 0.00011538682, No Iterations 3
time step continuity errors : sum local = 1.9522726e-05, global = 2.7015147e-07, cumulative = -0.00024865667
ExecutionTime = 22.196426 s  ClockTime = 22 s

Time = 103s

smoothSolver:  Solving for Ux, Initial residual = 0.00098816296, Final residual = 3.4568572e-05, No Iterations 3
smoothSolver:  Solving for Uy, Initial residual = 0.0071051403, Final residual = 0.00024955333, No Iterations 3
smoothSolver:  Solving for Uz, Initial residual = 0.0010600123, Final residual = 3.7830619e-05, No Iterations 3
GAMG:  Solving for p, Initial residual = 0.012323414, Final residual = 0.0001145285, No Iterations 3
time step continuity errors : sum local = 1.9417864e-05, global = 2.6165688e-07, cumulative = -0.00024839501
ExecutionTime = 22.398801 s  ClockTime = 22 s

Time = 104s

smoothSolver:  Solving for Ux, Initial residual = 0.00098490658, Final residual = 3.4471858e-05, No Iterations 3
smoothSolver:  Solving for Uy, Initial residual = 0.0070133996, Final residual = 0.0002463134, No Iterations 3
smoothSolver:  Solving for Uz, Initial residual = 0.001051931, Final residual = 3.7561359e-05, No Iterations 3
GAMG:  Solving for p, Initial residual = 0.012252318, Final residual = 0.00011429634, No Iterations 3
time step continuity errors : sum local = 1.9418667e-05, global = 2.5734911e-07, cumulative = -0.00024813766
ExecutionTime = 22.601351 s  ClockTime = 22 s

Time = 105s

smoothSolver:  Solving for Ux, Initial residual = 0.00098157831, Final residual = 3.4376663e-05, No Iterations 3
smoothSolver:  Solving for Uy, Initial residual = 0.0069199315, Final residual = 0.00024289605, No Iterations 3
smoothSolver:  Solving for Uz, Initial residual = 0.0010438407, Final residual = 3.7290814e-05, No Iterations 3
GAMG:  Solving for p, Initial residual = 0.012193549, Final residual = 0.00011423528, No Iterations 3
time step continuity errors : sum local = 1.944886e-05, global = 2.4908222e-07, cumulative = -0.00024788858
ExecutionTime = 22.801621 s  ClockTime = 23 s

Time = 106s

smoothSolver:  Solving for Ux, Initial residual = 0.00097822554, Final residual = 3.4275354e-05, No Iterations 3
smoothSolver:  Solving for Uy, Initial residual = 0.0068257103, Final residual = 0.00023939008, No Iterations 3
smoothSolver:  Solving for Uz, Initial residual = 0.0010358287, Final residual = 3.7020101e-05, No Iterations 3
GAMG:  Solving for p, Initial residual = 0.012131654, Final residual = 0.00011412468, No Iterations 3
time step continuity errors : sum local = 1.9470612e-05, global = 2.3882282e-07, cumulative = -0.00024764976
ExecutionTime = 23.002956 s  ClockTime = 23 s

Time = 107s

smoothSolver:  Solving for Ux, Initial residual = 0.00097482096, Final residual = 3.4167894e-05, No Iterations 3
smoothSolver:  Solving for Uy, Initial residual = 0.0067346508, Final residual = 0.00023594983, No Iterations 3
smoothSolver:  Solving for Uz, Initial residual = 0.0010279647, Final residual = 3.6753058e-05, No Iterations 3
GAMG:  Solving for p, Initial residual = 0.012051968, Final residual = 0.00011322339, No Iterations 3
time step continuity errors : sum local = 1.9356602e-05, global = 2.2636334e-07, cumulative = -0.0002474234
ExecutionTime = 23.207407 s  ClockTime = 23 s

Time = 108s

smoothSolver:  Solving for Ux, Initial residual = 0.00097146827, Final residual = 3.4058001e-05, No Iterations 3
smoothSolver:  Solving for Uy, Initial residual = 0.0066518066, Final residual = 0.00023285799, No Iterations 3
smoothSolver:  Solving for Uz, Initial residual = 0.0010203378, Final residual = 3.6491072e-05, No Iterations 3
GAMG:  Solving for p, Initial residual = 0.011948225, Final residual = 0.00011227597, No Iterations 3
time step continuity errors : sum local = 1.9233685e-05, global = 2.1568866e-07, cumulative = -0.00024720771
ExecutionTime = 23.408967 s  ClockTime = 23 s

Time = 109s

smoothSolver:  Solving for Ux, Initial residual = 0.00096823943, Final residual = 3.3954489e-05, No Iterations 3
smoothSolver:  Solving for Uy, Initial residual = 0.0065786981, Final residual = 0.00023023573, No Iterations 3
smoothSolver:  Solving for Uz, Initial residual = 0.0010129568, Final residual = 3.6236623e-05, No Iterations 3
GAMG:  Solving for p, Initial residual = 0.011889704, Final residual = 0.00011210964, No Iterations 3
time step continuity errors : sum local = 1.9244351e-05, global = 2.1034361e-07, cumulative = -0.00024699736
ExecutionTime = 23.611664 s  ClockTime = 23 s

Time = 110s

smoothSolver:  Solving for Ux, Initial residual = 0.0009651454, Final residual = 3.3854071e-05, No Iterations 3
smoothSolver:  Solving for Uy, Initial residual = 0.0065143377, Final residual = 0.00022794413, No Iterations 3
smoothSolver:  Solving for Uz, Initial residual = 0.0010057748, Final residual = 3.598987e-05, No Iterations 3
GAMG:  Solving for p, Initial residual = 0.011836198, Final residual = 0.00011167443, No Iterations 3
time step continuity errors : sum local = 1.9208615e-05, global = 2.0792959e-07, cumulative = -0.00024678943
ExecutionTime = 23.816849 s  ClockTime = 24 s

Time = 111s

smoothSolver:  Solving for Ux, Initial residual = 0.00096218307, Final residual = 3.3754777e-05, No Iterations 3
smoothSolver:  Solving for Uy, Initial residual = 0.0064543612, Final residual = 0.00022579209, No Iterations 3
smoothSolver:  Solving for Uz, Initial residual = 0.00099868396, Final residual = 3.5746669e-05, No Iterations 3
GAMG:  Solving for p, Initial residual = 0.011799871, Final residual = 0.0001107509, No Iterations 3
time step continuity errors : sum local = 1.9088407e-05, global = 2.0513031e-07, cumulative = -0.0002465843
ExecutionTime = 24.02127 s  ClockTime = 24 s

Time = 112s

smoothSolver:  Solving for Ux, Initial residual = 0.00095932897, Final residual = 3.3656612e-05, No Iterations 3
smoothSolver:  Solving for Uy, Initial residual = 0.0063952569, Final residual = 0.00022365134, No Iterations 3
smoothSolver:  Solving for Uz, Initial residual = 0.00099166961, Final residual = 3.5504658e-05, No Iterations 3
GAMG:  Solving for p, Initial residual = 0.011781141, Final residual = 0.00010918596, No Iterations 3
time step continuity errors : sum local = 1.8856583e-05, global = 2.0374769e-07, cumulative = -0.00024638056
ExecutionTime = 24.230923 s  ClockTime = 24 s

Time = 113s

smoothSolver:  Solving for Ux, Initial residual = 0.00095639128, Final residual = 3.3551038e-05, No Iterations 3
smoothSolver:  Solving for Uy, Initial residual = 0.0063310545, Final residual = 0.00022126086, No Iterations 3
smoothSolver:  Solving for Uz, Initial residual = 0.00098461034, Final residual = 3.5259496e-05, No Iterations 3
GAMG:  Solving for p, Initial residual = 0.01173454, Final residual = 0.00010763964, No Iterations 3
time step continuity errors : sum local = 1.862627e-05, global = 2.0142511e-07, cumulative = -0.00024617913
ExecutionTime = 24.436824 s  ClockTime = 24 s

Time = 114s

smoothSolver:  Solving for Ux, Initial residual = 0.00095324534, Final residual = 3.3430575e-05, No Iterations 3
smoothSolver:  Solving for Uy, Initial residual = 0.0062576267, Final residual = 0.00021854466, No Iterations 3
smoothSolver:  Solving for Uz, Initial residual = 0.00097748381, Final residual = 3.5008287e-05, No Iterations 3
GAMG:  Solving for p, Initial residual = 0.011668838, Final residual = 0.00010682426, No Iterations 3
time step continuity errors : sum local = 1.8521052e-05, global = 2.0670499e-07, cumulative = -0.00024597243
ExecutionTime = 24.646154 s  ClockTime = 24 s

Time = 115s

smoothSolver:  Solving for Ux, Initial residual = 0.00094995584, Final residual = 3.3300783e-05, No Iterations 3
smoothSolver:  Solving for Uy, Initial residual = 0.0061792114, Final residual = 0.00021564776, No Iterations 3
smoothSolver:  Solving for Uz, Initial residual = 0.00097034056, Final residual = 3.4755453e-05, No Iterations 3
GAMG:  Solving for p, Initial residual = 0.011629132, Final residual = 0.00010658518, No Iterations 3
time step continuity errors : sum local = 1.8515089e-05, global = 1.9656469e-07, cumulative = -0.00024577586
ExecutionTime = 24.853609 s  ClockTime = 25 s

Time = 116s

smoothSolver:  Solving for Ux, Initial residual = 0.00094650201, Final residual = 3.3166664e-05, No Iterations 3
smoothSolver:  Solving for Uy, Initial residual = 0.006106787, Final residual = 0.00021286938, No Iterations 3
smoothSolver:  Solving for Uz, Initial residual = 0.00096325976, Final residual = 3.4505514e-05, No Iterations 3
GAMG:  Solving for p, Initial residual = 0.011578361, Final residual = 0.00010626915, No Iterations 3
time step continuity errors : sum local = 1.8494511e-05, global = 2.003321e-07, cumulative = -0.00024557553
ExecutionTime = 25.06062 s  ClockTime = 25 s

Time = 117s

smoothSolver:  Solving for Ux, Initial residual = 0.00094297882, Final residual = 3.30332e-05, No Iterations 3
smoothSolver:  Solving for Uy, Initial residual = 0.006040506, Final residual = 0.00021028049, No Iterations 3
smoothSolver:  Solving for Uz, Initial residual = 0.00095628047, Final residual = 3.4258251e-05, No Iterations 3
GAMG:  Solving for p, Initial residual = 0.011505922, Final residual = 0.00010660905, No Iterations 3
time step continuity errors : sum local = 1.8587319e-05, global = 2.033538e-07, cumulative = -0.00024537218
ExecutionTime = 25.267989 s  ClockTime = 25 s

Time = 118s

smoothSolver:  Solving for Ux, Initial residual = 0.00093942925, Final residual = 3.2900446e-05, No Iterations 3
smoothSolver:  Solving for Uy, Initial residual = 0.0059761854, Final residual = 0.00020781204, No Iterations 3
smoothSolver:  Solving for Uz, Initial residual = 0.00094939217, Final residual = 3.4013544e-05, No Iterations 3
GAMG:  Solving for p, Initial residual = 0.011466738, Final residual = 0.00010802621, No Iterations 3
time step continuity errors : sum local = 1.8867871e-05, global = 2.0115855e-07, cumulative = -0.00024517102
ExecutionTime = 25.472488 s  ClockTime = 25 s

Time = 119s

smoothSolver:  Solving for Ux, Initial residual = 0.00093594354, Final residual = 3.2769831e-05, No Iterations 3
smoothSolver:  Solving for Uy, Initial residual = 0.0059139573, Final residual = 0.00020549435, No Iterations 3
smoothSolver:  Solving for Uz, Initial residual = 0.00094256627, Final residual = 3.3772523e-05, No Iterations 3
GAMG:  Solving for p, Initial residual = 0.011455277, Final residual = 0.00010923449, No Iterations 3
time step continuity errors : sum local = 1.9113186e-05, global = 1.9689404e-07, cumulative = -0.00024497412
ExecutionTime = 25.675034 s  ClockTime = 26 s

Time = 120s

smoothSolver:  Solving for Ux, Initial residual = 0.00093254868, Final residual = 3.2646881e-05, No Iterations 3
smoothSolver:  Solving for Uy, Initial residual = 0.0058537311, Final residual = 0.00020336269, No Iterations 3
smoothSolver:  Solving for Uz, Initial residual = 0.0009357983, Final residual = 3.3537316e-05, No Iterations 3
GAMG:  Solving for p, Initial residual = 0.011391174, Final residual = 0.00010916457, No Iterations 3
time step continuity errors : sum local = 1.9134595e-05, global = 1.9709985e-07, cumulative = -0.00024477702
ExecutionTime = 25.876355 s  ClockTime = 26 s

Time = 121s

smoothSolver:  Solving for Ux, Initial residual = 0.00092924687, Final residual = 3.2529855e-05, No Iterations 3
smoothSolver:  Solving for Uy, Initial residual = 0.0057961903, Final residual = 0.00020131392, No Iterations 3
smoothSolver:  Solving for Uz, Initial residual = 0.00092910431, Final residual = 3.3307838e-05, No Iterations 3
GAMG:  Solving for p, Initial residual = 0.011309934, Final residual = 0.00010835075, No Iterations 3
time step continuity errors : sum local = 1.9025015e-05, global = 1.9902871e-07, cumulative = -0.00024457799
ExecutionTime = 26.083244 s  ClockTime = 26 s

Time = 122s

smoothSolver:  Solving for Ux, Initial residual = 0.00092599136, Final residual = 3.2413115e-05, No Iterations 3
smoothSolver:  Solving for Uy, Initial residual = 0.0057387354, Final residual = 0.00019923494, No Iterations 3
smoothSolver:  Solving for Uz, Initial residual = 0.00092249014, Final residual = 3.3080442e-05, No Iterations 3
GAMG:  Solving for p, Initial residual = 0.011254899, Final residual = 0.00010775246, No Iterations 3
time step continuity errors : sum local = 1.8952959e-05, global = 2.0128618e-07, cumulative = -0.00024437671
ExecutionTime = 26.288974 s  ClockTime = 26 s

Time = 123s

smoothSolver:  Solving for Ux, Initial residual = 0.00092274377, Final residual = 3.2300407e-05, No Iterations 3
smoothSolver:  Solving for Uy, Initial residual = 0.0056804391, Final residual = 0.00019715022, No Iterations 3
smoothSolver:  Solving for Uz, Initial residual = 0.00091592763, Final residual = 3.2855413e-05, No Iterations 3
GAMG:  Solving for p, Initial residual = 0.011195933, Final residual = 0.00010695512, No Iterations 3
time step continuity errors : sum local = 1.8845802e-05, global = 1.9890046e-07, cumulative = -0.00024417781
ExecutionTime = 26.494505 s  ClockTime = 26 s

Time = 124s

smoothSolver:  Solving for Ux, Initial residual = 0.00091948523, Final residual = 3.2192286e-05, No Iterations 3
smoothSolver:  Solving for Uy, Initial residual = 0.0056215883, Final residual = 0.00019500002, No Iterations 3
smoothSolver:  Solving for Uz, Initial residual = 0.00090938755, Final residual = 3.2632854e-05, No Iterations 3
GAMG:  Solving for p, Initial residual = 0.011139363, Final residual = 0.00010648691, No Iterations 3
time step continuity errors : sum local = 1.8795898e-05, global = 2.0069231e-07, cumulative = -0.00024397712
ExecutionTime = 26.695558 s  ClockTime = 27 s

Time = 125s

smoothSolver:  Solving for Ux, Initial residual = 0.00091618209, Final residual = 3.208531e-05, No Iterations 3
smoothSolver:  Solving for Uy, Initial residual = 0.0055653933, Final residual = 0.00019290264, No Iterations 3
smoothSolver:  Solving for Uz, Initial residual = 0.00090287051, Final residual = 3.2412258e-05, No Iterations 3
GAMG:  Solving for p, Initial residual = 0.011081117, Final residual = 0.00010621817, No Iterations 3
time step continuity errors : sum local = 1.8780082e-05, global = 1.8450187e-07, cumulative = -0.00024379261
ExecutionTime = 26.896943 s  ClockTime = 27 s

Time = 126s

smoothSolver:  Solving for Ux, Initial residual = 0.00091278678, Final residual = 3.1981511e-05, No Iterations 3
smoothSolver:  Solving for Uy, Initial residual = 0.0055113444, Final residual = 0.0001908637, No Iterations 3
smoothSolver:  Solving for Uz, Initial residual = 0.00089645223, Final residual = 3.2192585e-05, No Iterations 3
GAMG:  Solving for p, Initial residual = 0.011007126, Final residual = 0.00010506972, No Iterations 3
time step continuity errors : sum local = 1.8608346e-05, global = 1.7217093e-07, cumulative = -0.00024362044
ExecutionTime = 27.098659 s  ClockTime = 27 s

Time = 127s

smoothSolver:  Solving for Ux, Initial residual = 0.00090938033, Final residual = 3.1877299e-05, No Iterations 3
smoothSolver:  Solving for Uy, Initial residual = 0.0054600113, Final residual = 0.0001889687, No Iterations 3
smoothSolver:  Solving for Uz, Initial residual = 0.00089007183, Final residual = 3.1974118e-05, No Iterations 3
GAMG:  Solving for p, Initial residual = 0.010946746, Final residual = 0.00010366412, No Iterations 3
time step continuity errors : sum local = 1.8390373e-05, global = 1.6444681e-07, cumulative = -0.000243456
ExecutionTime = 27.300126 s  ClockTime = 27 s

Time = 128s

smoothSolver:  Solving for Ux, Initial residual = 0.00090591833, Final residual = 3.17736e-05, No Iterations 3
smoothSolver:  Solving for Uy, Initial residual = 0.0054124054, Final residual = 0.00018723831, No Iterations 3
smoothSolver:  Solving for Uz, Initial residual = 0.00088377191, Final residual = 3.1758317e-05, No Iterations 3
GAMG:  Solving for p, Initial residual = 0.010894241, Final residual = 0.00010307129, No Iterations 3
time step continuity errors : sum local = 1.8315288e-05, global = 1.5972778e-07, cumulative = -0.00024329627
ExecutionTime = 27.502986 s  ClockTime = 27 s

Time = 129s

smoothSolver:  Solving for Ux, Initial residual = 0.00090256738, Final residual = 3.1673821e-05, No Iterations 3
smoothSolver:  Solving for Uy, Initial residual = 0.0053695912, Final residual = 0.00018570873, No Iterations 3
smoothSolver:  Solving for Uz, Initial residual = 0.00087757177, Final residual = 3.154683e-05, No Iterations 3
GAMG:  Solving for p, Initial residual = 0.01086749, Final residual = 0.00010358587, No Iterations 3
time step continuity errors : sum local = 1.8437436e-05, global = 1.5779959e-07, cumulative = -0.00024313847
ExecutionTime = 27.706471 s  ClockTime = 28 s

Time = 130s

smoothSolver:  Solving for Ux, Initial residual = 0.00089938751, Final residual = 3.1573413e-05, No Iterations 3
smoothSolver:  Solving for Uy, Initial residual = 0.0053320941, Final residual = 0.00018436889, No Iterations 3
[...]
GAMG:  Solving for p, Initial residual = 1.1820118e-05, Final residual = 8.3189038e-08, No Iterations 3
time step continuity errors : sum local = 1.8408885e-08, global = 1.2660691e-10, cumulative = -0.00025686383
ExecutionTime = 426.62928 s  ClockTime = 430 s

Time = 2090s

smoothSolver:  Solving for Ux, Initial residual = 8.050581e-07, Final residual = 2.8678972e-08, No Iterations 3
smoothSolver:  Solving for Uy, Initial residual = 7.0625708e-06, Final residual = 2.4966135e-07, No Iterations 3
smoothSolver:  Solving for Uz, Initial residual = 3.9940234e-07, Final residual = 1.389658e-08, No Iterations 3
GAMG:  Solving for p, Initial residual = 1.1751429e-05, Final residual = 8.2904086e-08, No Iterations 3
time step continuity errors : sum local = 1.8345827e-08, global = 1.2648235e-10, cumulative = -0.0002568637
ExecutionTime = 426.83151 s  ClockTime = 430 s

Time = 2091s

smoothSolver:  Solving for Ux, Initial residual = 8.0100882e-07, Final residual = 2.8505794e-08, No Iterations 3
smoothSolver:  Solving for Uy, Initial residual = 7.0246103e-06, Final residual = 2.4839252e-07, No Iterations 3
smoothSolver:  Solving for Uz, Initial residual = 3.9735952e-07, Final residual = 1.3823963e-08, No Iterations 3
GAMG:  Solving for p, Initial residual = 1.1686702e-05, Final residual = 8.2579209e-08, No Iterations 3
time step continuity errors : sum local = 1.8273935e-08, global = 1.2473447e-10, cumulative = -0.00025686358
ExecutionTime = 427.03348 s  ClockTime = 430 s

Time = 2092s

smoothSolver:  Solving for Ux, Initial residual = 7.9701101e-07, Final residual = 2.8331169e-08, No Iterations 3
smoothSolver:  Solving for Uy, Initial residual = 6.9877359e-06, Final residual = 2.4715408e-07, No Iterations 3
smoothSolver:  Solving for Uz, Initial residual = 3.9532998e-07, Final residual = 1.3752797e-08, No Iterations 3
GAMG:  Solving for p, Initial residual = 1.1623363e-05, Final residual = 8.2200321e-08, No Iterations 3
time step continuity errors : sum local = 1.8190091e-08, global = 1.2106494e-10, cumulative = -0.00025686346
ExecutionTime = 427.23585 s  ClockTime = 430 s

Time = 2093s

smoothSolver:  Solving for Ux, Initial residual = 7.9309502e-07, Final residual = 2.8161702e-08, No Iterations 3
smoothSolver:  Solving for Uy, Initial residual = 6.9509246e-06, Final residual = 2.4596421e-07, No Iterations 3
smoothSolver:  Solving for Uz, Initial residual = 3.9336245e-07, Final residual = 1.3684965e-08, No Iterations 3
GAMG:  Solving for p, Initial residual = 1.1561007e-05, Final residual = 8.1755589e-08, No Iterations 3
time step continuity errors : sum local = 1.8091676e-08, global = 1.1564793e-10, cumulative = -0.00025686334
ExecutionTime = 427.43853 s  ClockTime = 430 s

Time = 2094s

smoothSolver:  Solving for Ux, Initial residual = 7.8907199e-07, Final residual = 2.7987582e-08, No Iterations 3
smoothSolver:  Solving for Uy, Initial residual = 6.914282e-06, Final residual = 2.4477265e-07, No Iterations 3
smoothSolver:  Solving for Uz, Initial residual = 3.9138841e-07, Final residual = 1.361852e-08, No Iterations 3
GAMG:  Solving for p, Initial residual = 1.1499489e-05, Final residual = 8.1267054e-08, No Iterations 3
time step continuity errors : sum local = 1.7983568e-08, global = 1.0806026e-10, cumulative = -0.00025686323
ExecutionTime = 427.64086 s  ClockTime = 431 s

Time = 2095s

smoothSolver:  Solving for Ux, Initial residual = 7.8504318e-07, Final residual = 2.7816166e-08, No Iterations 3
smoothSolver:  Solving for Uy, Initial residual = 6.8789295e-06, Final residual = 2.4364571e-07, No Iterations 3
smoothSolver:  Solving for Uz, Initial residual = 3.8940029e-07, Final residual = 1.3553751e-08, No Iterations 3
GAMG:  Solving for p, Initial residual = 1.1438367e-05, Final residual = 8.0735748e-08, No Iterations 3
time step continuity errors : sum local = 1.7865995e-08, global = 9.8480469e-11, cumulative = -0.00025686313
ExecutionTime = 427.84161 s  ClockTime = 431 s

Time = 2096s

smoothSolver:  Solving for Ux, Initial residual = 7.8109373e-07, Final residual = 2.7649126e-08, No Iterations 3
smoothSolver:  Solving for Uy, Initial residual = 6.8430689e-06, Final residual = 2.4257875e-07, No Iterations 3
smoothSolver:  Solving for Uz, Initial residual = 3.8743624e-07, Final residual = 1.3487274e-08, No Iterations 3
GAMG:  Solving for p, Initial residual = 1.1377725e-05, Final residual = 8.0159335e-08, No Iterations 3
time step continuity errors : sum local = 1.773844e-08, global = 8.6583286e-11, cumulative = -0.00025686305
ExecutionTime = 428.0453 s  ClockTime = 431 s

Time = 2097s

smoothSolver:  Solving for Ux, Initial residual = 7.7704603e-07, Final residual = 2.748822e-08, No Iterations 3
smoothSolver:  Solving for Uy, Initial residual = 6.8076698e-06, Final residual = 2.4156068e-07, No Iterations 3
smoothSolver:  Solving for Uz, Initial residual = 3.85475e-07, Final residual = 1.3420819e-08, No Iterations 3
GAMG:  Solving for p, Initial residual = 1.131942e-05, Final residual = 7.9555825e-08, No Iterations 3
time step continuity errors : sum local = 1.7604889e-08, global = 7.2812571e-11, cumulative = -0.00025686297
ExecutionTime = 428.24587 s  ClockTime = 431 s

Time = 2098s

smoothSolver:  Solving for Ux, Initial residual = 7.7310825e-07, Final residual = 2.7324884e-08, No Iterations 3
smoothSolver:  Solving for Uy, Initial residual = 6.7711442e-06, Final residual = 2.4051717e-07, No Iterations 3
smoothSolver:  Solving for Uz, Initial residual = 3.8353996e-07, Final residual = 1.3352968e-08, No Iterations 3
GAMG:  Solving for p, Initial residual = 1.1262184e-05, Final residual = 7.8952786e-08, No Iterations 3
time step continuity errors : sum local = 1.7471443e-08, global = 5.7152021e-11, cumulative = -0.00025686292
ExecutionTime = 428.44871 s  ClockTime = 431 s

Time = 2099s

smoothSolver:  Solving for Ux, Initial residual = 7.691825e-07, Final residual = 2.716013e-08, No Iterations 3
smoothSolver:  Solving for Uy, Initial residual = 6.7353499e-06, Final residual = 2.3944467e-07, No Iterations 3
smoothSolver:  Solving for Uz, Initial residual = 3.8165627e-07, Final residual = 1.3283505e-08, No Iterations 3
GAMG:  Solving for p, Initial residual = 1.1203376e-05, Final residual = 7.8360831e-08, No Iterations 3
time step continuity errors : sum local = 1.7340449e-08, global = 3.9938726e-11, cumulative = -0.00025686288
ExecutionTime = 428.65192 s  ClockTime = 432 s

Time = 2100s

smoothSolver:  Solving for Ux, Initial residual = 7.6522892e-07, Final residual = 2.6998146e-08, No Iterations 3
smoothSolver:  Solving for Uy, Initial residual = 6.699858e-06, Final residual = 2.3836467e-07, No Iterations 3
smoothSolver:  Solving for Uz, Initial residual = 3.7976843e-07, Final residual = 1.3211996e-08, No Iterations 3
GAMG:  Solving for p, Initial residual = 1.1145629e-05, Final residual = 7.776112e-08, No Iterations 3
time step continuity errors : sum local = 1.7207739e-08, global = 2.144639e-11, cumulative = -0.00025686286
ExecutionTime = 428.85415 s  ClockTime = 432 s

Time = 2101s

smoothSolver:  Solving for Ux, Initial residual = 7.6114782e-07, Final residual = 2.6841767e-08, No Iterations 3
smoothSolver:  Solving for Uy, Initial residual = 6.6643778e-06, Final residual = 2.373039e-07, No Iterations 3
smoothSolver:  Solving for Uz, Initial residual = 3.7790198e-07, Final residual = 1.3142227e-08, No Iterations 3
GAMG:  Solving for p, Initial residual = 1.1090941e-05, Final residual = 7.7164931e-08, No Iterations 3
time step continuity errors : sum local = 1.7075808e-08, global = 2.2079855e-12, cumulative = -0.00025686285
ExecutionTime = 429.05655 s  ClockTime = 432 s

Time = 2102s

smoothSolver:  Solving for Ux, Initial residual = 7.5714343e-07, Final residual = 2.670795e-08, No Iterations 3
smoothSolver:  Solving for Uy, Initial residual = 6.6300124e-06, Final residual = 2.3614348e-07, No Iterations 3
smoothSolver:  Solving for Uz, Initial residual = 3.7607438e-07, Final residual = 1.3074514e-08, No Iterations 3
GAMG:  Solving for p, Initial residual = 1.1036174e-05, Final residual = 7.6580701e-08, No Iterations 3
time step continuity errors : sum local = 1.6946524e-08, global = -1.7336481e-11, cumulative = -0.00025686287
ExecutionTime = 429.26837 s  ClockTime = 432 s

Time = 2103s

smoothSolver:  Solving for Ux, Initial residual = 7.5319834e-07, Final residual = 2.6587221e-08, No Iterations 3
smoothSolver:  Solving for Uy, Initial residual = 6.5955092e-06, Final residual = 2.3492484e-07, No Iterations 3
smoothSolver:  Solving for Uz, Initial residual = 3.7423096e-07, Final residual = 1.3008301e-08, No Iterations 3
GAMG:  Solving for p, Initial residual = 1.0979824e-05, Final residual = 7.6030989e-08, No Iterations 3
time step continuity errors : sum local = 1.6824878e-08, global = -3.691966e-11, cumulative = -0.00025686291
ExecutionTime = 429.47966 s  ClockTime = 432 s

Time = 2104s

smoothSolver:  Solving for Ux, Initial residual = 7.4929327e-07, Final residual = 2.6480002e-08, No Iterations 3
smoothSolver:  Solving for Uy, Initial residual = 6.5604532e-06, Final residual = 2.3367146e-07, No Iterations 3
smoothSolver:  Solving for Uz, Initial residual = 3.7244026e-07, Final residual = 1.2942318e-08, No Iterations 3
GAMG:  Solving for p, Initial residual = 1.0925003e-05, Final residual = 7.5494363e-08, No Iterations 3
time step continuity errors : sum local = 1.6706128e-08, global = -5.5531605e-11, cumulative = -0.00025686296
ExecutionTime = 429.68486 s  ClockTime = 433 s

Time = 2105s

smoothSolver:  Solving for Ux, Initial residual = 7.4545152e-07, Final residual = 2.6373129e-08, No Iterations 3
smoothSolver:  Solving for Uy, Initial residual = 6.5247851e-06, Final residual = 2.3238528e-07, No Iterations 3
smoothSolver:  Solving for Uz, Initial residual = 3.7061587e-07, Final residual = 1.2875337e-08, No Iterations 3
GAMG:  Solving for p, Initial residual = 1.0870344e-05, Final residual = 7.4958394e-08, No Iterations 3
time step continuity errors : sum local = 1.6587524e-08, global = -7.2948064e-11, cumulative = -0.00025686304
ExecutionTime = 429.88734 s  ClockTime = 433 s

Time = 2106s

smoothSolver:  Solving for Ux, Initial residual = 7.4155986e-07, Final residual = 2.6266823e-08, No Iterations 3
smoothSolver:  Solving for Uy, Initial residual = 6.4890318e-06, Final residual = 2.3110797e-07, No Iterations 3
smoothSolver:  Solving for Uz, Initial residual = 3.6881598e-07, Final residual = 1.2809448e-08, No Iterations 3
GAMG:  Solving for p, Initial residual = 1.0817407e-05, Final residual = 7.4436675e-08, No Iterations 3
time step continuity errors : sum local = 1.6472073e-08, global = -8.8777256e-11, cumulative = -0.00025686313
ExecutionTime = 430.09357 s  ClockTime = 433 s

Time = 2107s

smoothSolver:  Solving for Ux, Initial residual = 7.3761877e-07, Final residual = 2.6153296e-08, No Iterations 3
smoothSolver:  Solving for Uy, Initial residual = 6.4534301e-06, Final residual = 2.2978195e-07, No Iterations 3
smoothSolver:  Solving for Uz, Initial residual = 3.6705376e-07, Final residual = 1.2746314e-08, No Iterations 3
GAMG:  Solving for p, Initial residual = 1.0764336e-05, Final residual = 7.3965905e-08, No Iterations 3
time step continuity errors : sum local = 1.6367896e-08, global = -1.0275764e-10, cumulative = -0.00025686323
ExecutionTime = 430.29549 s  ClockTime = 433 s

Time = 2108s

smoothSolver:  Solving for Ux, Initial residual = 7.33635e-07, Final residual = 2.6041975e-08, No Iterations 3
smoothSolver:  Solving for Uy, Initial residual = 6.4179717e-06, Final residual = 2.2848824e-07, No Iterations 3
smoothSolver:  Solving for Uz, Initial residual = 3.6529381e-07, Final residual = 1.2685479e-08, No Iterations 3
GAMG:  Solving for p, Initial residual = 1.0711585e-05, Final residual = 7.3551175e-08, No Iterations 3
time step continuity errors : sum local = 1.6276121e-08, global = -1.0463369e-10, cumulative = -0.00025686333
ExecutionTime = 430.4975 s  ClockTime = 434 s

Time = 2109s

smoothSolver:  Solving for Ux, Initial residual = 7.297327e-07, Final residual = 2.5925238e-08, No Iterations 3
smoothSolver:  Solving for Uy, Initial residual = 6.3822322e-06, Final residual = 2.2716622e-07, No Iterations 3
smoothSolver:  Solving for Uz, Initial residual = 3.6355298e-07, Final residual = 1.2628482e-08, No Iterations 3
GAMG:  Solving for p, Initial residual = 1.0658091e-05, Final residual = 7.3206491e-08, No Iterations 3
time step continuity errors : sum local = 1.6199846e-08, global = -1.0727604e-10, cumulative = -0.00025686344
ExecutionTime = 430.7007 s  ClockTime = 434 s

Time = 2110s

smoothSolver:  Solving for Ux, Initial residual = 7.2587179e-07, Final residual = 2.5807212e-08, No Iterations 3
smoothSolver:  Solving for Uy, Initial residual = 6.3470564e-06, Final residual = 2.2580746e-07, No Iterations 3
smoothSolver:  Solving for Uz, Initial residual = 3.6182674e-07, Final residual = 1.2572996e-08, No Iterations 3
GAMG:  Solving for p, Initial residual = 1.0603547e-05, Final residual = 7.2914039e-08, No Iterations 3
time step continuity errors : sum local = 1.613513e-08, global = -1.0493814e-10, cumulative = -0.00025686355
ExecutionTime = 430.90254 s  ClockTime = 434 s

Time = 2111s

smoothSolver:  Solving for Ux, Initial residual = 7.2205488e-07, Final residual = 2.5693931e-08, No Iterations 3
smoothSolver:  Solving for Uy, Initial residual = 6.311834e-06, Final residual = 2.2441234e-07, No Iterations 3
smoothSolver:  Solving for Uz, Initial residual = 3.6013826e-07, Final residual = 1.2518479e-08, No Iterations 3
GAMG:  Solving for p, Initial residual = 1.0548746e-05, Final residual = 7.2639467e-08, No Iterations 3
time step continuity errors : sum local = 1.607437e-08, global = -9.8809072e-11, cumulative = -0.00025686364
ExecutionTime = 431.10515 s  ClockTime = 434 s

Time = 2112s

smoothSolver:  Solving for Ux, Initial residual = 7.1833474e-07, Final residual = 2.5570875e-08, No Iterations 3
smoothSolver:  Solving for Uy, Initial residual = 6.2775866e-06, Final residual = 2.2304357e-07, No Iterations 3
smoothSolver:  Solving for Uz, Initial residual = 3.5846162e-07, Final residual = 1.2465687e-08, No Iterations 3
GAMG:  Solving for p, Initial residual = 1.0492952e-05, Final residual = 7.2374597e-08, No Iterations 3
time step continuity errors : sum local = 1.6015757e-08, global = -9.0031514e-11, cumulative = -0.00025686373
ExecutionTime = 431.30773 s  ClockTime = 434 s

Time = 2113s

smoothSolver:  Solving for Ux, Initial residual = 7.1456513e-07, Final residual = 2.545001e-08, No Iterations 3
smoothSolver:  Solving for Uy, Initial residual = 6.2432907e-06, Final residual = 2.2164137e-07, No Iterations 3
smoothSolver:  Solving for Uz, Initial residual = 3.5681224e-07, Final residual = 1.2415503e-08, No Iterations 3
GAMG:  Solving for p, Initial residual = 1.0436133e-05, Final residual = 7.2097639e-08, No Iterations 3
time step continuity errors : sum local = 1.595447e-08, global = -7.9746899e-11, cumulative = -0.00025686381
ExecutionTime = 431.51344 s  ClockTime = 435 s

Time = 2114s

smoothSolver:  Solving for Ux, Initial residual = 7.1076323e-07, Final residual = 2.5331523e-08, No Iterations 3
smoothSolver:  Solving for Uy, Initial residual = 6.2098487e-06, Final residual = 2.202731e-07, No Iterations 3
smoothSolver:  Solving for Uz, Initial residual = 3.5517877e-07, Final residual = 1.2366442e-08, No Iterations 3
GAMG:  Solving for p, Initial residual = 1.0378073e-05, Final residual = 7.1747279e-08, No Iterations 3
time step continuity errors : sum local = 1.5876939e-08, global = -7.5945828e-11, cumulative = -0.00025686389
ExecutionTime = 431.71832 s  ClockTime = 435 s

Time = 2115s

smoothSolver:  Solving for Ux, Initial residual = 7.0689219e-07, Final residual = 2.5211706e-08, No Iterations 3
smoothSolver:  Solving for Uy, Initial residual = 6.1762368e-06, Final residual = 2.1890221e-07, No Iterations 3
smoothSolver:  Solving for Uz, Initial residual = 3.5349223e-07, Final residual = 1.2315487e-08, No Iterations 3
GAMG:  Solving for p, Initial residual = 1.0320047e-05, Final residual = 7.1511013e-08, No Iterations 3
time step continuity errors : sum local = 1.5824656e-08, global = -6.8646998e-11, cumulative = -0.00025686396
ExecutionTime = 431.91998 s  ClockTime = 435 s

Time = 2116s

smoothSolver:  Solving for Ux, Initial residual = 7.0310245e-07, Final residual = 2.5087154e-08, No Iterations 3
smoothSolver:  Solving for Uy, Initial residual = 6.1431518e-06, Final residual = 2.1750664e-07, No Iterations 3
smoothSolver:  Solving for Uz, Initial residual = 3.5180746e-07, Final residual = 1.226394e-08, No Iterations 3
GAMG:  Solving for p, Initial residual = 1.0263006e-05, Final residual = 7.1289222e-08, No Iterations 3
time step continuity errors : sum local = 1.5775576e-08, global = -6.4511656e-11, cumulative = -0.00025686402
ExecutionTime = 432.12028 s  ClockTime = 435 s

Time = 2117s

smoothSolver:  Solving for Ux, Initial residual = 6.9938715e-07, Final residual = 2.4957717e-08, No Iterations 3
smoothSolver:  Solving for Uy, Initial residual = 6.1098134e-06, Final residual = 2.1613946e-07, No Iterations 3
smoothSolver:  Solving for Uz, Initial residual = 3.5017377e-07, Final residual = 1.221596e-08, No Iterations 3
GAMG:  Solving for p, Initial residual = 1.0206598e-05, Final residual = 7.1079078e-08, No Iterations 3
time step continuity errors : sum local = 1.5729073e-08, global = -6.2822768e-11, cumulative = -0.00025686409
ExecutionTime = 432.32654 s  ClockTime = 435 s

Time = 2118s

smoothSolver:  Solving for Ux, Initial residual = 6.9571379e-07, Final residual = 2.4830195e-08, No Iterations 3
smoothSolver:  Solving for Uy, Initial residual = 6.077435e-06, Final residual = 2.148465e-07, No Iterations 3
smoothSolver:  Solving for Uz, Initial residual = 3.4853725e-07, Final residual = 1.216855e-08, No Iterations 3
GAMG:  Solving for p, Initial residual = 1.0151976e-05, Final residual = 7.0859599e-08, No Iterations 3
time step continuity errors : sum local = 1.5680505e-08, global = -6.3666811e-11, cumulative = -0.00025686415
ExecutionTime = 432.53002 s  ClockTime = 436 s

Time = 2119s

smoothSolver:  Solving for Ux, Initial residual = 6.9208808e-07, Final residual = 2.4701816e-08, No Iterations 3
smoothSolver:  Solving for Uy, Initial residual = 6.04519e-06, Final residual = 2.1363064e-07, No Iterations 3
smoothSolver:  Solving for Uz, Initial residual = 3.4689158e-07, Final residual = 1.211743e-08, No Iterations 3
GAMG:  Solving for p, Initial residual = 1.0094662e-05, Final residual = 7.0646192e-08, No Iterations 3
time step continuity errors : sum local = 1.563328e-08, global = -6.6057031e-11, cumulative = -0.00025686422
ExecutionTime = 432.73541 s  ClockTime = 436 s

Time = 2120s

smoothSolver:  Solving for Ux, Initial residual = 6.884885e-07, Final residual = 2.4570493e-08, No Iterations 3
smoothSolver:  Solving for Uy, Initial residual = 6.0127534e-06, Final residual = 2.1245199e-07, No Iterations 3
smoothSolver:  Solving for Uz, Initial residual = 3.4521803e-07, Final residual = 1.2066272e-08, No Iterations 3
GAMG:  Solving for p, Initial residual = 1.0036699e-05, Final residual = 7.0439056e-08, No Iterations 3
time step continuity errors : sum local = 1.5587444e-08, global = -6.9248292e-11, cumulative = -0.00025686428
ExecutionTime = 432.93922 s  ClockTime = 436 s

Time = 2121s

smoothSolver:  Solving for Ux, Initial residual = 6.849514e-07, Final residual = 2.4438323e-08, No Iterations 3
smoothSolver:  Solving for Uy, Initial residual = 5.9806046e-06, Final residual = 2.1131932e-07, No Iterations 3
smoothSolver:  Solving for Uz, Initial residual = 3.4356304e-07, Final residual = 1.2013245e-08, No Iterations 3
GAMG:  Solving for p, Initial residual = 9.9773593e-06, Final residual = 7.0216113e-08, No Iterations 3
time step continuity errors : sum local = 1.5538109e-08, global = -7.2489506e-11, cumulative = -0.00025686436
ExecutionTime = 433.14313 s  ClockTime = 436 s


SIMPLE solution converged in 2121 iterations

End

Finalising parallel run
