/*---------------------------------------------------------------------------*\
  =========                 |
  \\      /  F ield         | OpenFOAM: The Open Source CFD Toolbox
   \\    /   O peration     | Website:  https://openfoam.org
    \\  /    A nd           | Version:  11
     \\/     M anipulation  |
\*---------------------------------------------------------------------------*/
Build  : 11-e1fc8c682ae6
Exec   : foamRun -solver incompressibleFluid -parallel
Date   : Feb 07 2026
Time   : 12:11:53
Host   : "ip-172-31-18-192"
PID    : 117416
I/O    : uncollated
Case   : /home/ubuntu/cases/bifurcation_angle30_500_ascii/Re300
nProcs : 16
Slaves : 
15
(
"ip-172-31-18-192.117417"
"ip-172-31-18-192.117418"
"ip-172-31-18-192.117419"
"ip-172-31-18-192.117420"
"ip-172-31-18-192.117421"
"ip-172-31-18-192.117422"
"ip-172-31-18-192.117423"
"ip-172-31-18-192.117424"
"ip-172-31-18-192.117425"
"ip-172-31-18-192.117426"
"ip-172-31-18-192.117427"
"ip-172-31-18-192.117428"
"ip-172-31-18-192.117429"
"ip-172-31-18-192.117430"
"ip-172-31-18-192.117431"
)

Pstream initialised with:
    floatTransfer      : false
    nProcsSimpleSum    : 0
    commsType          : nonBlocking
    polling iterations : 0
sigFpe : Enabling floating point exception trapping (FOAM_SIGFPE).
fileModificationChecking : Monitoring run-time modified files using timeStampMaster (fileModificationSkew 10)
allowSystemOperations : Allowing user-supplied system call operations

// * * * * * * * * * * * * * * * * * * * * * * * * * * * * * * * * * * * * * //
Create time

Create mesh for time = 0

Selecting solver incompressibleFluid
Selecting viscosity model Newtonian
Selecting turbulence model type laminar
Selecting laminar stress model Stokes
No MRF models present


SIMPLE: Convergence criteria found
        p: tolerance 1e-05
        U: tolerance 1e-05


SIMPLE: Operating solver in steady-state mode with 1 outer corrector
SIMPLE: Operating solver in SIMPLE mode



Starting time loop

wallShearStress wallShearStress:
    processing wall patches: 
        wall-fluid_domain

Time = 1s

smoothSolver:  Solving for Ux, Initial residual = 1, Final residual = 0.045294154, No Iterations 1
smoothSolver:  Solving for Uy, Initial residual = 1, Final residual = 0.047942212, No Iterations 1
smoothSolver:  Solving for Uz, Initial residual = 1, Final residual = 0.014211614, No Iterations 1
GAMG:  Solving for p, Initial residual = 1, Final residual = 0.007313908, No Iterations 10
time step continuity errors : sum local = 0.00022415371, global = -5.3520203e-06, cumulative = -5.3520203e-06
ExecutionTime = 0.519982 s  ClockTime = 1 s

Time = 2s

smoothSolver:  Solving for Ux, Initial residual = 0.25940987, Final residual = 0.015441216, No Iterations 2
smoothSolver:  Solving for Uy, Initial residual = 0.35598201, Final residual = 0.017306788, No Iterations 2
smoothSolver:  Solving for Uz, Initial residual = 0.24502463, Final residual = 0.016526207, No Iterations 2
GAMG:  Solving for p, Initial residual = 0.33679438, Final residual = 0.0028491118, No Iterations 6
time step continuity errors : sum local = 0.006234981, global = -0.0001777739, cumulative = -0.00018312592
ExecutionTime = 0.666194 s  ClockTime = 1 s

Time = 3s

smoothSolver:  Solving for Ux, Initial residual = 0.2231172, Final residual = 0.022231202, No Iterations 2
smoothSolver:  Solving for Uy, Initial residual = 0.13915375, Final residual = 0.0086331414, No Iterations 2
smoothSolver:  Solving for Uz, Initial residual = 0.49549446, Final residual = 0.017936641, No Iterations 3
GAMG:  Solving for p, Initial residual = 0.12799177, Final residual = 0.00075897319, No Iterations 3
time step continuity errors : sum local = 0.0095535145, global = 7.0504721e-06, cumulative = -0.00017607545
ExecutionTime = 0.791417 s  ClockTime = 1 s

Time = 4s

smoothSolver:  Solving for Ux, Initial residual = 0.14906922, Final residual = 0.0050258479, No Iterations 3
smoothSolver:  Solving for Uy, Initial residual = 0.07391066, Final residual = 0.0046342167, No Iterations 2
smoothSolver:  Solving for Uz, Initial residual = 0.3458257, Final residual = 0.012528696, No Iterations 3
GAMG:  Solving for p, Initial residual = 0.089605336, Final residual = 0.00073476094, No Iterations 5
time step continuity errors : sum local = 0.0095460374, global = 4.204397e-05, cumulative = -0.00013403148
ExecutionTime = 0.930522 s  ClockTime = 1 s

Time = 5s

smoothSolver:  Solving for Ux, Initial residual = 0.089402399, Final residual = 0.0086072247, No Iterations 2
smoothSolver:  Solving for Uy, Initial residual = 0.17514134, Final residual = 0.012249645, No Iterations 2
smoothSolver:  Solving for Uz, Initial residual = 0.14310267, Final residual = 0.0051867531, No Iterations 3
GAMG:  Solving for p, Initial residual = 0.068117845, Final residual = 0.00064665735, No Iterations 6
time step continuity errors : sum local = 0.0043385336, global = 0.00016644492, cumulative = 3.2413435e-05
ExecutionTime = 1.077482 s  ClockTime = 1 s

Time = 6s

smoothSolver:  Solving for Ux, Initial residual = 0.084926645, Final residual = 0.0068197722, No Iterations 2
smoothSolver:  Solving for Uy, Initial residual = 0.40289489, Final residual = 0.027519178, No Iterations 2
smoothSolver:  Solving for Uz, Initial residual = 0.061220211, Final residual = 0.0021366709, No Iterations 3
GAMG:  Solving for p, Initial residual = 0.40118443, Final residual = 0.0019024396, No Iterations 5
time step continuity errors : sum local = 0.006202246, global = -7.682371e-05, cumulative = -4.4410275e-05
ExecutionTime = 1.216435 s  ClockTime = 1 s

Time = 7s

smoothSolver:  Solving for Ux, Initial residual = 0.13097827, Final residual = 0.01227752, No Iterations 2
smoothSolver:  Solving for Uy, Initial residual = 0.26114056, Final residual = 0.017291805, No Iterations 2
smoothSolver:  Solving for Uz, Initial residual = 0.21257641, Final residual = 0.0077167407, No Iterations 3
GAMG:  Solving for p, Initial residual = 0.22301489, Final residual = 0.0019740577, No Iterations 3
time step continuity errors : sum local = 0.013598658, global = -0.00021520687, cumulative = -0.00025961715
ExecutionTime = 1.340641 s  ClockTime = 2 s

Time = 8s

smoothSolver:  Solving for Ux, Initial residual = 0.11565448, Final residual = 0.00368323, No Iterations 3
smoothSolver:  Solving for Uy, Initial residual = 0.1387096, Final residual = 0.0095040707, No Iterations 2
smoothSolver:  Solving for Uz, Initial residual = 0.23482254, Final residual = 0.0085214033, No Iterations 3
GAMG:  Solving for p, Initial residual = 0.1728516, Final residual = 0.00088561964, No Iterations 5
time step continuity errors : sum local = 0.0053710861, global = -1.7946628e-05, cumulative = -0.00027756378
ExecutionTime = 1.479671 s  ClockTime = 2 s

Time = 9s

smoothSolver:  Solving for Ux, Initial residual = 0.074606064, Final residual = 0.0070609188, No Iterations 2
smoothSolver:  Solving for Uy, Initial residual = 0.24318655, Final residual = 0.019487881, No Iterations 2
smoothSolver:  Solving for Uz, Initial residual = 0.08481765, Final residual = 0.0030345851, No Iterations 3
GAMG:  Solving for p, Initial residual = 0.17389187, Final residual = 0.00083046745, No Iterations 6
time step continuity errors : sum local = 0.0020363009, global = -6.3516571e-05, cumulative = -0.00034108035
ExecutionTime = 1.624264 s  ClockTime = 2 s

Time = 10s

smoothSolver:  Solving for Ux, Initial residual = 0.076357151, Final residual = 0.0067144458, No Iterations 2
smoothSolver:  Solving for Uy, Initial residual = 0.4018206, Final residual = 0.029917107, No Iterations 2
smoothSolver:  Solving for Uz, Initial residual = 0.067848982, Final residual = 0.0024484058, No Iterations 3
GAMG:  Solving for p, Initial residual = 0.27437918, Final residual = 0.0027145761, No Iterations 4
time step continuity errors : sum local = 0.0058365262, global = -0.00012465316, cumulative = -0.00046573351
ExecutionTime = 1.757454 s  ClockTime = 2 s

Time = 11s

smoothSolver:  Solving for Ux, Initial residual = 0.076728797, Final residual = 0.0073478694, No Iterations 2
smoothSolver:  Solving for Uy, Initial residual = 0.24013462, Final residual = 0.016698225, No Iterations 2
smoothSolver:  Solving for Uz, Initial residual = 0.1087451, Final residual = 0.0039583204, No Iterations 3
GAMG:  Solving for p, Initial residual = 0.18899178, Final residual = 0.0012155152, No Iterations 4
time step continuity errors : sum local = 0.0041552945, global = 1.7067705e-05, cumulative = -0.0004486658
ExecutionTime = 1.889479 s  ClockTime = 2 s

Time = 12s

smoothSolver:  Solving for Ux, Initial residual = 0.050089521, Final residual = 0.0016323416, No Iterations 3
smoothSolver:  Solving for Uy, Initial residual = 0.14904377, Final residual = 0.011764854, No Iterations 2
smoothSolver:  Solving for Uz, Initial residual = 0.07626037, Final residual = 0.0027720286, No Iterations 3
GAMG:  Solving for p, Initial residual = 0.1499622, Final residual = 0.0010346786, No Iterations 5
time step continuity errors : sum local = 0.0027152222, global = 5.4202145e-06, cumulative = -0.00044324559
ExecutionTime = 2.031148 s  ClockTime = 2 s

Time = 13s

smoothSolver:  Solving for Ux, Initial residual = 0.03009293, Final residual = 0.0027750503, No Iterations 2
smoothSolver:  Solving for Uy, Initial residual = 0.30293789, Final residual = 0.025700761, No Iterations 2
smoothSolver:  Solving for Uz, Initial residual = 0.0179127, Final residual = 0.00059733257, No Iterations 3
GAMG:  Solving for p, Initial residual = 0.2363197, Final residual = 0.001022974, No Iterations 6
time step continuity errors : sum local = 0.00087936356, global = 3.2179602e-05, cumulative = -0.00041106598
ExecutionTime = 2.177422 s  ClockTime = 2 s

Time = 14s

smoothSolver:  Solving for Ux, Initial residual = 0.036088302, Final residual = 0.0033053906, No Iterations 2
smoothSolver:  Solving for Uy, Initial residual = 0.34054501, Final residual = 0.026796911, No Iterations 2
smoothSolver:  Solving for Uz, Initial residual = 0.036557402, Final residual = 0.0013226674, No Iterations 3
GAMG:  Solving for p, Initial residual = 0.25644941, Final residual = 0.0019178733, No Iterations 4
time step continuity errors : sum local = 0.0023914996, global = 3.6095457e-05, cumulative = -0.00037497053
ExecutionTime = 2.312183 s  ClockTime = 3 s

Time = 15s

smoothSolver:  Solving for Ux, Initial residual = 0.036214642, Final residual = 0.0035177849, No Iterations 2
smoothSolver:  Solving for Uy, Initial residual = 0.18914699, Final residual = 0.013816064, No Iterations 2
smoothSolver:  Solving for Uz, Initial residual = 0.052915247, Final residual = 0.0019200019, No Iterations 3
GAMG:  Solving for p, Initial residual = 0.18881338, Final residual = 0.0015010812, No Iterations 4
time step continuity errors : sum local = 0.0024116326, global = -1.2543478e-05, cumulative = -0.00038751401
ExecutionTime = 2.443153 s  ClockTime = 3 s

Time = 16s

smoothSolver:  Solving for Ux, Initial residual = 0.025393374, Final residual = 0.0008244288, No Iterations 3
smoothSolver:  Solving for Uy, Initial residual = 0.1457521, Final residual = 0.012571056, No Iterations 2
smoothSolver:  Solving for Uz, Initial residual = 0.034454147, Final residual = 0.001243425, No Iterations 3
GAMG:  Solving for p, Initial residual = 0.1518787, Final residual = 0.0012185676, No Iterations 5
time step continuity errors : sum local = 0.0013234223, global = -2.6975238e-06, cumulative = -0.00039021153
ExecutionTime = 2.582054 s  ClockTime = 3 s

Time = 17s

smoothSolver:  Solving for Ux, Initial residual = 0.016475449, Final residual = 0.0014521127, No Iterations 2
smoothSolver:  Solving for Uy, Initial residual = 0.278372, Final residual = 0.024076316, No Iterations 2
smoothSolver:  Solving for Uz, Initial residual = 0.0071452082, Final residual = 0.00065354079, No Iterations 2
GAMG:  Solving for p, Initial residual = 0.46545607, Final residual = 0.0040947977, No Iterations 5
time step continuity errors : sum local = 0.00095367182, global = 4.2687739e-06, cumulative = -0.00038594276
ExecutionTime = 2.719684 s  ClockTime = 3 s

Time = 18s

smoothSolver:  Solving for Ux, Initial residual = 0.020100312, Final residual = 0.0019055504, No Iterations 2
smoothSolver:  Solving for Uy, Initial residual = 0.25390938, Final residual = 0.020430355, No Iterations 2
smoothSolver:  Solving for Uz, Initial residual = 0.021778094, Final residual = 0.0007972568, No Iterations 3
GAMG:  Solving for p, Initial residual = 0.20666165, Final residual = 0.0013258535, No Iterations 4
time step continuity errors : sum local = 0.0010154876, global = -1.1207603e-05, cumulative = -0.00039715036
ExecutionTime = 2.850529 s  ClockTime = 3 s

Time = 19s

smoothSolver:  Solving for Ux, Initial residual = 0.017088007, Final residual = 0.00054283567, No Iterations 3
smoothSolver:  Solving for Uy, Initial residual = 0.14119866, Final residual = 0.010914551, No Iterations 2
smoothSolver:  Solving for Uz, Initial residual = 0.023812531, Final residual = 0.00087163477, No Iterations 3
GAMG:  Solving for p, Initial residual = 0.16032377, Final residual = 0.0015712636, No Iterations 4
time step continuity errors : sum local = 0.0013113684, global = 1.1527694e-05, cumulative = -0.00038562266
ExecutionTime = 2.983335 s  ClockTime = 3 s

Time = 20s

smoothSolver:  Solving for Ux, Initial residual = 0.011669711, Final residual = 0.00038861257, No Iterations 3
smoothSolver:  Solving for Uy, Initial residual = 0.13474256, Final residual = 0.012360375, No Iterations 2
smoothSolver:  Solving for Uz, Initial residual = 0.01262545, Final residual = 0.00046054482, No Iterations 3
GAMG:  Solving for p, Initial residual = 0.12409907, Final residual = 0.0011592411, No Iterations 5
time step continuity errors : sum local = 0.00062034618, global = -8.1610785e-07, cumulative = -0.00038643877
ExecutionTime = 3.122186 s  ClockTime = 3 s

Time = 21s

smoothSolver:  Solving for Ux, Initial residual = 0.0087476315, Final residual = 0.00080018153, No Iterations 2
smoothSolver:  Solving for Uy, Initial residual = 0.19592245, Final residual = 0.017316038, No Iterations 2
smoothSolver:  Solving for Uz, Initial residual = 0.0043266755, Final residual = 0.00042491472, No Iterations 2
GAMG:  Solving for p, Initial residual = 0.33364638, Final residual = 0.00221524, No Iterations 5
time step continuity errors : sum local = 0.00039371697, global = -2.636799e-06, cumulative = -0.00038907557
ExecutionTime = 3.259296 s  ClockTime = 4 s

Time = 22s

smoothSolver:  Solving for Ux, Initial residual = 0.009462877, Final residual = 0.00089320272, No Iterations 2
smoothSolver:  Solving for Uy, Initial residual = 0.15481919, Final residual = 0.012814074, No Iterations 2
smoothSolver:  Solving for Uz, Initial residual = 0.011048094, Final residual = 0.00039636805, No Iterations 3
GAMG:  Solving for p, Initial residual = 0.19329574, Final residual = 0.0010887482, No Iterations 4
time step continuity errors : sum local = 0.00043913036, global = 4.0640187e-06, cumulative = -0.00038501155
ExecutionTime = 3.390728 s  ClockTime = 4 s

Time = 23s

smoothSolver:  Solving for Ux, Initial residual = 0.0074513065, Final residual = 0.00073532435, No Iterations 2
smoothSolver:  Solving for Uy, Initial residual = 0.086677672, Final residual = 0.0070969838, No Iterations 2
smoothSolver:  Solving for Uz, Initial residual = 0.01068402, Final residual = 0.00038279139, No Iterations 3
GAMG:  Solving for p, Initial residual = 0.15232651, Final residual = 0.00072042502, No Iterations 5
time step continuity errors : sum local = 0.00028204621, global = -2.6210696e-06, cumulative = -0.00038763262
ExecutionTime = 3.529037 s  ClockTime = 4 s

Time = 24s

smoothSolver:  Solving for Ux, Initial residual = 0.0054399074, Final residual = 0.00054028587, No Iterations 2
smoothSolver:  Solving for Uy, Initial residual = 0.095782934, Final residual = 0.0089644631, No Iterations 2
smoothSolver:  Solving for Uz, Initial residual = 0.0045484484, Final residual = 0.00015602922, No Iterations 3
GAMG:  Solving for p, Initial residual = 0.13138222, Final residual = 0.0012692075, No Iterations 5
time step continuity errors : sum local = 0.00028237513, global = 2.1696532e-07, cumulative = -0.00038741566
ExecutionTime = 3.667007 s  ClockTime = 4 s

Time = 25s

smoothSolver:  Solving for Ux, Initial residual = 0.0054146212, Final residual = 0.00052403178, No Iterations 2
smoothSolver:  Solving for Uy, Initial residual = 0.11640795, Final residual = 0.010473601, No Iterations 2
smoothSolver:  Solving for Uz, Initial residual = 0.0039589347, Final residual = 0.00013992536, No Iterations 3
GAMG:  Solving for p, Initial residual = 0.1464738, Final residual = 0.00071346259, No Iterations 5
time step continuity errors : sum local = 0.00015871139, global = 3.4064461e-07, cumulative = -0.00038707501
ExecutionTime = 3.805016 s  ClockTime = 4 s

Time = 26s

smoothSolver:  Solving for Ux, Initial residual = 0.0054278448, Final residual = 0.00017325791, No Iterations 3
smoothSolver:  Solving for Uy, Initial residual = 0.086715744, Final residual = 0.0075528606, No Iterations 2
smoothSolver:  Solving for Uz, Initial residual = 0.0061964349, Final residual = 0.00022789007, No Iterations 3
GAMG:  Solving for p, Initial residual = 0.12099914, Final residual = 0.00078875266, No Iterations 4
time step continuity errors : sum local = 0.00024370758, global = 7.4034086e-07, cumulative = -0.00038633467
ExecutionTime = 3.93737 s  ClockTime = 4 s

Time = 27s

smoothSolver:  Solving for Ux, Initial residual = 0.0043770434, Final residual = 0.00014896443, No Iterations 3
smoothSolver:  Solving for Uy, Initial residual = 0.054991975, Final residual = 0.0051237977, No Iterations 2
smoothSolver:  Solving for Uz, Initial residual = 0.0052069538, Final residual = 0.00019069999, No Iterations 3
GAMG:  Solving for p, Initial residual = 0.090694434, Final residual = 0.00050656721, No Iterations 5
time step continuity errors : sum local = 0.0001454763, global = 7.8969705e-07, cumulative = -0.00038554497
ExecutionTime = 4.078193 s  ClockTime = 4 s

Time = 28s

smoothSolver:  Solving for Ux, Initial residual = 0.0038310176, Final residual = 0.00012710693, No Iterations 3
smoothSolver:  Solving for Uy, Initial residual = 0.061652716, Final residual = 0.0059780187, No Iterations 2
smoothSolver:  Solving for Uz, Initial residual = 0.0029495369, Final residual = 0.00010326048, No Iterations 3
GAMG:  Solving for p, Initial residual = 0.072581535, Final residual = 0.00062889706, No Iterations 5
time step continuity errors : sum local = 0.00012704939, global = -4.7913193e-07, cumulative = -0.00038602411
ExecutionTime = 4.218156 s  ClockTime = 4 s

Time = 29s

smoothSolver:  Solving for Ux, Initial residual = 0.0034132759, Final residual = 0.00033803587, No Iterations 2
smoothSolver:  Solving for Uy, Initial residual = 0.063593273, Final residual = 0.0059260708, No Iterations 2
smoothSolver:  Solving for Uz, Initial residual = 0.0024465568, Final residual = 8.1341341e-05, No Iterations 3
GAMG:  Solving for p, Initial residual = 0.13022091, Final residual = 0.0011585548, No Iterations 4
time step continuity errors : sum local = 0.00016628988, global = 2.6770914e-06, cumulative = -0.00038334701
ExecutionTime = 4.350139 s  ClockTime = 5 s

Time = 30s

smoothSolver:  Solving for Ux, Initial residual = 0.0029060333, Final residual = 0.00028916139, No Iterations 2
smoothSolver:  Solving for Uy, Initial residual = 0.046748335, Final residual = 0.0043456289, No Iterations 2
smoothSolver:  Solving for Uz, Initial residual = 0.0029417263, Final residual = 0.00010150737, No Iterations 3
GAMG:  Solving for p, Initial residual = 0.11124066, Final residual = 0.00079391868, No Iterations 4
time step continuity errors : sum local = 0.00013545661, global = -2.1209194e-07, cumulative = -0.00038355911
ExecutionTime = 4.481934 s  ClockTime = 5 s

Time = 31s

smoothSolver:  Solving for Ux, Initial residual = 0.0025669913, Final residual = 8.374101e-05, No Iterations 3
smoothSolver:  Solving for Uy, Initial residual = 0.036487978, Final residual = 0.0036323771, No Iterations 2
smoothSolver:  Solving for Uz, Initial residual = 0.0023073213, Final residual = 7.8093275e-05, No Iterations 3
GAMG:  Solving for p, Initial residual = 0.085567957, Final residual = 0.00047231752, No Iterations 5
time step continuity errors : sum local = 7.1503816e-05, global = -5.7873553e-07, cumulative = -0.00038413784
ExecutionTime = 4.621705 s  ClockTime = 5 s

Time = 32s

smoothSolver:  Solving for Ux, Initial residual = 0.0027168726, Final residual = 8.9977338e-05, No Iterations 3
smoothSolver:  Solving for Uy, Initial residual = 0.040770046, Final residual = 0.0040691678, No Iterations 2
smoothSolver:  Solving for Uz, Initial residual = 0.0021634008, Final residual = 7.4659263e-05, No Iterations 3
GAMG:  Solving for p, Initial residual = 0.059297976, Final residual = 0.00036320243, No Iterations 5
time step continuity errors : sum local = 5.6358175e-05, global = -1.0659656e-07, cumulative = -0.00038424444
ExecutionTime = 4.761746 s  ClockTime = 5 s

Time = 33s

smoothSolver:  Solving for Ux, Initial residual = 0.0027970595, Final residual = 9.3874136e-05, No Iterations 3
smoothSolver:  Solving for Uy, Initial residual = 0.039414112, Final residual = 0.0038819555, No Iterations 2
smoothSolver:  Solving for Uz, Initial residual = 0.0025965343, Final residual = 9.2179488e-05, No Iterations 3
GAMG:  Solving for p, Initial residual = 0.057226416, Final residual = 0.00045136132, No Iterations 4
time step continuity errors : sum local = 8.5393831e-05, global = -9.7747416e-07, cumulative = -0.00038522191
ExecutionTime = 4.893349 s  ClockTime = 5 s

Time = 34s

smoothSolver:  Solving for Ux, Initial residual = 0.002622129, Final residual = 9.0325975e-05, No Iterations 3
smoothSolver:  Solving for Uy, Initial residual = 0.031880528, Final residual = 0.0010215371, No Iterations 3
smoothSolver:  Solving for Uz, Initial residual = 0.0026767106, Final residual = 9.5617696e-05, No Iterations 3
GAMG:  Solving for p, Initial residual = 0.050631177, Final residual = 0.0004178461, No Iterations 4
time step continuity errors : sum local = 8.2823289e-05, global = 4.8519893e-07, cumulative = -0.00038473671
ExecutionTime = 5.02671 s  ClockTime = 5 s

Time = 35s

smoothSolver:  Solving for Ux, Initial residual = 0.0024737582, Final residual = 8.6054338e-05, No Iterations 3
smoothSolver:  Solving for Uy, Initial residual = 0.028232119, Final residual = 0.00094084872, No Iterations 3
smoothSolver:  Solving for Uz, Initial residual = 0.0024013451, Final residual = 8.4954681e-05, No Iterations 3
GAMG:  Solving for p, Initial residual = 0.039551238, Final residual = 0.00020152265, No Iterations 5
time step continuity errors : sum local = 3.7641759e-05, global = 8.3399484e-08, cumulative = -0.00038465331
ExecutionTime = 5.167235 s  ClockTime = 5 s

Time = 36s

smoothSolver:  Solving for Ux, Initial residual = 0.0023886703, Final residual = 8.176446e-05, No Iterations 3
smoothSolver:  Solving for Uy, Initial residual = 0.028470318, Final residual = 0.00093451251, No Iterations 3
smoothSolver:  Solving for Uz, Initial residual = 0.0020842176, Final residual = 7.2652352e-05, No Iterations 3
GAMG:  Solving for p, Initial residual = 0.040906801, Final residual = 0.00017401432, No Iterations 5
time step continuity errors : sum local = 2.9122983e-05, global = 5.730146e-08, cumulative = -0.00038459601
ExecutionTime = 5.308328 s  ClockTime = 6 s

Time = 37s

smoothSolver:  Solving for Ux, Initial residual = 0.0022682558, Final residual = 7.7065358e-05, No Iterations 3
smoothSolver:  Solving for Uy, Initial residual = 0.026691024, Final residual = 0.00087384004, No Iterations 3
smoothSolver:  Solving for Uz, Initial residual = 0.0019341459, Final residual = 6.6787135e-05, No Iterations 3
GAMG:  Solving for p, Initial residual = 0.0488515, Final residual = 0.00036916754, No Iterations 4
time step continuity errors : sum local = 5.701754e-05, global = 9.6814121e-07, cumulative = -0.00038362787
ExecutionTime = 5.442109 s  ClockTime = 6 s

Time = 38s

smoothSolver:  Solving for Ux, Initial residual = 0.0021721227, Final residual = 7.4437575e-05, No Iterations 3
smoothSolver:  Solving for Uy, Initial residual = 0.024149135, Final residual = 0.00081183818, No Iterations 3
smoothSolver:  Solving for Uz, Initial residual = 0.0019017098, Final residual = 6.5750847e-05, No Iterations 3
GAMG:  Solving for p, Initial residual = 0.044839794, Final residual = 0.00035548488, No Iterations 4
time step continuity errors : sum local = 5.4675938e-05, global = -2.2200321e-07, cumulative = -0.00038384987
ExecutionTime = 5.575062 s  ClockTime = 6 s

Time = 39s

smoothSolver:  Solving for Ux, Initial residual = 0.0021622244, Final residual = 7.4559093e-05, No Iterations 3
smoothSolver:  Solving for Uy, Initial residual = 0.023604682, Final residual = 0.00080447982, No Iterations 3
smoothSolver:  Solving for Uz, Initial residual = 0.001934426, Final residual = 6.7338341e-05, No Iterations 3
GAMG:  Solving for p, Initial residual = 0.036080704, Final residual = 0.00035245636, No Iterations 4
time step continuity errors : sum local = 5.6850118e-05, global = -3.5244923e-07, cumulative = -0.00038420232
ExecutionTime = 5.708921 s  ClockTime = 6 s

Time = 40s

smoothSolver:  Solving for Ux, Initial residual = 0.0021789463, Final residual = 7.5374116e-05, No Iterations 3
smoothSolver:  Solving for Uy, Initial residual = 0.023524885, Final residual = 0.00079911858, No Iterations 3
smoothSolver:  Solving for Uz, Initial residual = 0.0020051927, Final residual = 7.0377543e-05, No Iterations 3
GAMG:  Solving for p, Initial residual = 0.03270596, Final residual = 0.0002937864, No Iterations 4
time step continuity errors : sum local = 5.0269465e-05, global = -3.8020592e-07, cumulative = -0.00038458253
ExecutionTime = 5.840556 s  ClockTime = 6 s

Time = 41s

smoothSolver:  Solving for Ux, Initial residual = 0.0021615667, Final residual = 7.5158262e-05, No Iterations 3
smoothSolver:  Solving for Uy, Initial residual = 0.022461525, Final residual = 0.00076558918, No Iterations 3
smoothSolver:  Solving for Uz, Initial residual = 0.0020418339, Final residual = 7.2008806e-05, No Iterations 3
GAMG:  Solving for p, Initial residual = 0.031820353, Final residual = 0.00019260959, No Iterations 4
time step continuity errors : sum local = 3.4151674e-05, global = -6.3542396e-08, cumulative = -0.00038464607
ExecutionTime = 5.973902 s  ClockTime = 6 s

Time = 42s

smoothSolver:  Solving for Ux, Initial residual = 0.0021253222, Final residual = 7.4152706e-05, No Iterations 3
smoothSolver:  Solving for Uy, Initial residual = 0.021213554, Final residual = 0.00072902176, No Iterations 3
smoothSolver:  Solving for Uz, Initial residual = 0.0020125172, Final residual = 7.1000485e-05, No Iterations 3
GAMG:  Solving for p, Initial residual = 0.030030267, Final residual = 0.00026195168, No Iterations 4
time step continuity errors : sum local = 4.6692236e-05, global = 3.7212452e-07, cumulative = -0.00038427395
ExecutionTime = 6.1091 s  ClockTime = 6 s

Time = 43s

smoothSolver:  Solving for Ux, Initial residual = 0.0020974339, Final residual = 7.3100343e-05, No Iterations 3
smoothSolver:  Solving for Uy, Initial residual = 0.020487268, Final residual = 0.00070468702, No Iterations 3
smoothSolver:  Solving for Uz, Initial residual = 0.0019378491, Final residual = 6.8176369e-05, No Iterations 3
GAMG:  Solving for p, Initial residual = 0.028870343, Final residual = 0.00027632474, No Iterations 4
time step continuity errors : sum local = 4.8494154e-05, global = 4.0396321e-07, cumulative = -0.00038386998
ExecutionTime = 6.242026 s  ClockTime = 7 s

Time = 44s

smoothSolver:  Solving for Ux, Initial residual = 0.0020702446, Final residual = 7.1916084e-05, No Iterations 3
smoothSolver:  Solving for Uy, Initial residual = 0.019948164, Final residual = 0.00068409779, No Iterations 3
smoothSolver:  Solving for Uz, Initial residual = 0.0018645655, Final residual = 6.5385896e-05, No Iterations 3
GAMG:  Solving for p, Initial residual = 0.029586161, Final residual = 0.00026262367, No Iterations 4
time step continuity errors : sum local = 4.5181942e-05, global = 5.8471057e-07, cumulative = -0.00038328527
ExecutionTime = 6.376014 s  ClockTime = 7 s

Time = 45s

smoothSolver:  Solving for Ux, Initial residual = 0.0020429841, Final residual = 7.0852429e-05, No Iterations 3
smoothSolver:  Solving for Uy, Initial residual = 0.019322116, Final residual = 0.00066349107, No Iterations 3
smoothSolver:  Solving for Uz, Initial residual = 0.00182001, Final residual = 6.3722816e-05, No Iterations 3
GAMG:  Solving for p, Initial residual = 0.029836123, Final residual = 0.00015816403, No Iterations 4
time step continuity errors : sum local = 2.696443e-05, global = 6.8848788e-07, cumulative = -0.00038259679
ExecutionTime = 6.508591 s  ClockTime = 7 s

Time = 46s

smoothSolver:  Solving for Ux, Initial residual = 0.0020237005, Final residual = 7.0183628e-05, No Iterations 3
smoothSolver:  Solving for Uy, Initial residual = 0.018769129, Final residual = 0.00064643209, No Iterations 3
smoothSolver:  Solving for Uz, Initial residual = 0.0017993757, Final residual = 6.3023676e-05, No Iterations 3
GAMG:  Solving for p, Initial residual = 0.028803762, Final residual = 0.00020930201, No Iterations 4
time step continuity errors : sum local = 3.5854799e-05, global = -1.2288092e-07, cumulative = -0.00038271967
ExecutionTime = 6.640834 s  ClockTime = 7 s

Time = 47s

smoothSolver:  Solving for Ux, Initial residual = 0.0020129811, Final residual = 6.9815654e-05, No Iterations 3
smoothSolver:  Solving for Uy, Initial residual = 0.018335178, Final residual = 0.00063220699, No Iterations 3
smoothSolver:  Solving for Uz, Initial residual = 0.0017936553, Final residual = 6.2921281e-05, No Iterations 3
GAMG:  Solving for p, Initial residual = 0.027580705, Final residual = 0.00021991509, No Iterations 4
time step continuity errors : sum local = 3.8175183e-05, global = -2.4119083e-07, cumulative = -0.00038296086
ExecutionTime = 6.77421 s  ClockTime = 7 s

Time = 48s

smoothSolver:  Solving for Ux, Initial residual = 0.0020051099, Final residual = 6.9555573e-05, No Iterations 3
smoothSolver:  Solving for Uy, Initial residual = 0.017871213, Final residual = 0.00061599958, No Iterations 3
smoothSolver:  Solving for Uz, Initial residual = 0.0017913986, Final residual = 6.2959328e-05, No Iterations 3
GAMG:  Solving for p, Initial residual = 0.026765809, Final residual = 0.00019845712, No Iterations 4
time step continuity errors : sum local = 3.4974741e-05, global = -1.8941038e-07, cumulative = -0.00038315027
ExecutionTime = 6.907273 s  ClockTime = 7 s

Time = 49s

smoothSolver:  Solving for Ux, Initial residual = 0.0019956179, Final residual = 6.9240992e-05, No Iterations 3
smoothSolver:  Solving for Uy, Initial residual = 0.017348741, Final residual = 0.00059808957, No Iterations 3
smoothSolver:  Solving for Uz, Initial residual = 0.0017802911, Final residual = 6.2638628e-05, No Iterations 3
GAMG:  Solving for p, Initial residual = 0.02615242, Final residual = 0.00025078081, No Iterations 3
time step continuity errors : sum local = 4.4655469e-05, global = 3.3996897e-07, cumulative = -0.0003828103
ExecutionTime = 7.032748 s  ClockTime = 7 s

Time = 50s

smoothSolver:  Solving for Ux, Initial residual = 0.0019816264, Final residual = 6.8743292e-05, No Iterations 3
smoothSolver:  Solving for Uy, Initial residual = 0.016829256, Final residual = 0.0005804026, No Iterations 3
smoothSolver:  Solving for Uz, Initial residual = 0.0017592004, Final residual = 6.192387e-05, No Iterations 3
GAMG:  Solving for p, Initial residual = 0.025641133, Final residual = 0.00020308268, No Iterations 4
time step continuity errors : sum local = 3.6335749e-05, global = 3.664384e-07, cumulative = -0.00038244386
ExecutionTime = 7.166337 s  ClockTime = 7 s

Time = 51s

smoothSolver:  Solving for Ux, Initial residual = 0.0019760131, Final residual = 6.8526634e-05, No Iterations 3
smoothSolver:  Solving for Uy, Initial residual = 0.016409155, Final residual = 0.00056570835, No Iterations 3
smoothSolver:  Solving for Uz, Initial residual = 0.0017295905, Final residual = 6.0851033e-05, No Iterations 3
GAMG:  Solving for p, Initial residual = 0.025395372, Final residual = 0.00021377663, No Iterations 4
time step continuity errors : sum local = 3.8272656e-05, global = 4.369443e-07, cumulative = -0.00038200692
ExecutionTime = 7.30005 s  ClockTime = 8 s

Time = 52s

smoothSolver:  Solving for Ux, Initial residual = 0.0019690116, Final residual = 6.826744e-05, No Iterations 3
smoothSolver:  Solving for Uy, Initial residual = 0.01602953, Final residual = 0.00055235627, No Iterations 3
smoothSolver:  Solving for Uz, Initial residual = 0.0016985862, Final residual = 5.9716744e-05, No Iterations 3
GAMG:  Solving for p, Initial residual = 0.025269385, Final residual = 0.00020322737, No Iterations 4
time step continuity errors : sum local = 3.6340091e-05, global = 4.5909613e-07, cumulative = -0.00038154782
ExecutionTime = 7.434568 s  ClockTime = 8 s

Time = 53s

smoothSolver:  Solving for Ux, Initial residual = 0.0019589194, Final residual = 6.7928476e-05, No Iterations 3
smoothSolver:  Solving for Uy, Initial residual = 0.015642307, Final residual = 0.00053931668, No Iterations 3
smoothSolver:  Solving for Uz, Initial residual = 0.0016722854, Final residual = 5.8774522e-05, No Iterations 3
GAMG:  Solving for p, Initial residual = 0.025075392, Final residual = 0.00023915305, No Iterations 3
time step continuity errors : sum local = 4.2773144e-05, global = 1.1198749e-06, cumulative = -0.00038042795
ExecutionTime = 7.560461 s  ClockTime = 8 s

Time = 54s

smoothSolver:  Solving for Ux, Initial residual = 0.001945066, Final residual = 6.7500634e-05, No Iterations 3
smoothSolver:  Solving for Uy, Initial residual = 0.015235582, Final residual = 0.00052577792, No Iterations 3
smoothSolver:  Solving for Uz, Initial residual = 0.0016526859, Final residual = 5.8122025e-05, No Iterations 3
GAMG:  Solving for p, Initial residual = 0.024638503, Final residual = 0.000241538, No Iterations 3
time step continuity errors : sum local = 4.3360489e-05, global = 9.850946e-07, cumulative = -0.00037944285
ExecutionTime = 7.687918 s  ClockTime = 8 s

Time = 55s

smoothSolver:  Solving for Ux, Initial residual = 0.0019334605, Final residual = 6.7167737e-05, No Iterations 3
smoothSolver:  Solving for Uy, Initial residual = 0.014847746, Final residual = 0.00051290779, No Iterations 3
smoothSolver:  Solving for Uz, Initial residual = 0.0016344037, Final residual = 5.7522247e-05, No Iterations 3
GAMG:  Solving for p, Initial residual = 0.024246814, Final residual = 0.00016087164, No Iterations 4
time step continuity errors : sum local = 2.9003615e-05, global = 4.7044474e-07, cumulative = -0.00037897241
ExecutionTime = 7.821271 s  ClockTime = 8 s

Time = 56s

smoothSolver:  Solving for Ux, Initial residual = 0.001927287, Final residual = 6.701964e-05, No Iterations 3
smoothSolver:  Solving for Uy, Initial residual = 0.014492948, Final residual = 0.00050114248, No Iterations 3
smoothSolver:  Solving for Uz, Initial residual = 0.0016178939, Final residual = 5.6981048e-05, No Iterations 3
GAMG:  Solving for p, Initial residual = 0.024004148, Final residual = 0.0001527194, No Iterations 4
time step continuity errors : sum local = 2.7667606e-05, global = 3.9479817e-07, cumulative = -0.00037857761
ExecutionTime = 7.956086 s  ClockTime = 8 s

Time = 57s

smoothSolver:  Solving for Ux, Initial residual = 0.0019217634, Final residual = 6.688904e-05, No Iterations 3
smoothSolver:  Solving for Uy, Initial residual = 0.014152648, Final residual = 0.00048981177, No Iterations 3
smoothSolver:  Solving for Uz, Initial residual = 0.0016024453, Final residual = 5.6480622e-05, No Iterations 3
GAMG:  Solving for p, Initial residual = 0.023762724, Final residual = 0.00022717638, No Iterations 3
time step continuity errors : sum local = 4.1373505e-05, global = 7.1013513e-07, cumulative = -0.00037786747
ExecutionTime = 8.082998 s  ClockTime = 8 s

Time = 58s

smoothSolver:  Solving for Ux, Initial residual = 0.0019127409, Final residual = 6.6608382e-05, No Iterations 3
smoothSolver:  Solving for Uy, Initial residual = 0.013816553, Final residual = 0.00047863137, No Iterations 3
smoothSolver:  Solving for Uz, Initial residual = 0.0015862367, Final residual = 5.5956145e-05, No Iterations 3
GAMG:  Solving for p, Initial residual = 0.023388176, Final residual = 0.00023251484, No Iterations 3
time step continuity errors : sum local = 4.2543523e-05, global = 7.6220903e-07, cumulative = -0.00037710526
ExecutionTime = 8.209396 s  ClockTime = 9 s

Time = 59s

smoothSolver:  Solving for Ux, Initial residual = 0.0019054671, Final residual = 6.6378976e-05, No Iterations 3
smoothSolver:  Solving for Uy, Initial residual = 0.013503368, Final residual = 0.00046807246, No Iterations 3
smoothSolver:  Solving for Uz, Initial residual = 0.0015696054, Final residual = 5.540815e-05, No Iterations 3
GAMG:  Solving for p, Initial residual = 0.023017523, Final residual = 0.00014496975, No Iterations 4
time step continuity errors : sum local = 2.6640077e-05, global = 3.9173141e-07, cumulative = -0.00037671353
ExecutionTime = 8.343451 s  ClockTime = 9 s

Time = 60s

smoothSolver:  Solving for Ux, Initial residual = 0.0019027104, Final residual = 6.6311862e-05, No Iterations 3
smoothSolver:  Solving for Uy, Initial residual = 0.013204138, Final residual = 0.00045777369, No Iterations 3
smoothSolver:  Solving for Uz, Initial residual = 0.0015510768, Final residual = 5.4769502e-05, No Iterations 3
GAMG:  Solving for p, Initial residual = 0.022775256, Final residual = 0.00014327271, No Iterations 4
time step continuity errors : sum local = 2.6422749e-05, global = 3.7148088e-07, cumulative = -0.00037634205
ExecutionTime = 8.475358 s  ClockTime = 9 s

Time = 61s

smoothSolver:  Solving for Ux, Initial residual = 0.0018973266, Final residual = 6.6131841e-05, No Iterations 3
smoothSolver:  Solving for Uy, Initial residual = 0.0128975, Final residual = 0.00044734998, No Iterations 3
smoothSolver:  Solving for Uz, Initial residual = 0.0015318744, Final residual = 5.4108399e-05, No Iterations 3
GAMG:  Solving for p, Initial residual = 0.022581717, Final residual = 0.00022548121, No Iterations 3
time step continuity errors : sum local = 4.1709322e-05, global = 7.3326699e-07, cumulative = -0.00037560878
ExecutionTime = 8.600593 s  ClockTime = 9 s

Time = 62s

smoothSolver:  Solving for Ux, Initial residual = 0.0018871273, Final residual = 6.5772176e-05, No Iterations 3
smoothSolver:  Solving for Uy, Initial residual = 0.012590288, Final residual = 0.00043706958, No Iterations 3
smoothSolver:  Solving for Uz, Initial residual = 0.001514472, Final residual = 5.3522847e-05, No Iterations 3
GAMG:  Solving for p, Initial residual = 0.022287465, Final residual = 0.00013702794, No Iterations 4
time step continuity errors : sum local = 2.5434587e-05, global = 3.873226e-07, cumulative = -0.00037522146
ExecutionTime = 8.73256 s  ClockTime = 9 s

Time = 63s

smoothSolver:  Solving for Ux, Initial residual = 0.0018797426, Final residual = 6.5510242e-05, No Iterations 3
smoothSolver:  Solving for Uy, Initial residual = 0.012302726, Final residual = 0.00042732074, No Iterations 3
smoothSolver:  Solving for Uz, Initial residual = 0.0014961777, Final residual = 5.2882693e-05, No Iterations 3
GAMG:  Solving for p, Initial residual = 0.022100403, Final residual = 0.00012505702, No Iterations 4
time step continuity errors : sum local = 2.3269921e-05, global = 4.3336326e-07, cumulative = -0.0003747881
ExecutionTime = 8.865588 s  ClockTime = 9 s

Time = 64s

smoothSolver:  Solving for Ux, Initial residual = 0.0018721544, Final residual = 6.5235555e-05, No Iterations 3
smoothSolver:  Solving for Uy, Initial residual = 0.01203549, Final residual = 0.00041835018, No Iterations 3
smoothSolver:  Solving for Uz, Initial residual = 0.0014792254, Final residual = 5.2290764e-05, No Iterations 3
GAMG:  Solving for p, Initial residual = 0.021848285, Final residual = 0.00021310223, No Iterations 3
time step continuity errors : sum local = 3.9764375e-05, global = 7.5836479e-07, cumulative = -0.00037402973
ExecutionTime = 8.992969 s  ClockTime = 9 s

Time = 65s

smoothSolver:  Solving for Ux, Initial residual = 0.0018626703, Final residual = 6.4902917e-05, No Iterations 3
smoothSolver:  Solving for Uy, Initial residual = 0.011784573, Final residual = 0.00041005566, No Iterations 3
smoothSolver:  Solving for Uz, Initial residual = 0.0014639278, Final residual = 5.1775548e-05, No Iterations 3
GAMG:  Solving for p, Initial residual = 0.021575377, Final residual = 0.00011855644, No Iterations 4
time step continuity errors : sum local = 2.2201469e-05, global = 5.1638996e-07, cumulative = -0.00037351334
ExecutionTime = 9.127126 s  ClockTime = 9 s

Time = 66s

smoothSolver:  Solving for Ux, Initial residual = 0.0018574938, Final residual = 6.4769033e-05, No Iterations 3
smoothSolver:  Solving for Uy, Initial residual = 0.011560516, Final residual = 0.00040244904, No Iterations 3
smoothSolver:  Solving for Uz, Initial residual = 0.0014487985, Final residual = 5.125615e-05, No Iterations 3
GAMG:  Solving for p, Initial residual = 0.021407329, Final residual = 0.00011464728, No Iterations 4
time step continuity errors : sum local = 2.1540843e-05, global = 4.9688579e-07, cumulative = -0.00037301646
ExecutionTime = 9.262613 s  ClockTime = 10 s

Time = 67s

smoothSolver:  Solving for Ux, Initial residual = 0.0018524094, Final residual = 6.465927e-05, No Iterations 3
smoothSolver:  Solving for Uy, Initial residual = 0.011342158, Final residual = 0.00039509247, No Iterations 3
smoothSolver:  Solving for Uz, Initial residual = 0.0014342977, Final residual = 5.0770792e-05, No Iterations 3
GAMG:  Solving for p, Initial residual = 0.02124454, Final residual = 0.00020953067, No Iterations 3
time step continuity errors : sum local = 3.9509209e-05, global = 8.1280076e-07, cumulative = -0.00037220366
ExecutionTime = 9.388484 s  ClockTime = 10 s

Time = 68s

smoothSolver:  Solving for Ux, Initial residual = 0.0018441912, Final residual = 6.4427205e-05, No Iterations 3
smoothSolver:  Solving for Uy, Initial residual = 0.011120998, Final residual = 0.00038771871, No Iterations 3
smoothSolver:  Solving for Uz, Initial residual = 0.0014202998, Final residual = 5.0313779e-05, No Iterations 3
GAMG:  Solving for p, Initial residual = 0.021064023, Final residual = 0.00011854273, No Iterations 4
time step continuity errors : sum local = 2.2437963e-05, global = 4.5959305e-07, cumulative = -0.00037174406
ExecutionTime = 9.52171 s  ClockTime = 10 s

Time = 69s

smoothSolver:  Solving for Ux, Initial residual = 0.0018395303, Final residual = 6.4321935e-05, No Iterations 3
smoothSolver:  Solving for Uy, Initial residual = 0.010909277, Final residual = 0.00038042543, No Iterations 3
smoothSolver:  Solving for Uz, Initial residual = 0.0014057173, Final residual = 4.9830477e-05, No Iterations 3
GAMG:  Solving for p, Initial residual = 0.020904057, Final residual = 0.00011540336, No Iterations 4
time step continuity errors : sum local = 2.1921162e-05, global = 4.1647547e-07, cumulative = -0.00037132759
ExecutionTime = 9.653265 s  ClockTime = 10 s

Time = 70s

smoothSolver:  Solving for Ux, Initial residual = 0.0018335447, Final residual = 6.4199878e-05, No Iterations 3
smoothSolver:  Solving for Uy, Initial residual = 0.010697726, Final residual = 0.00037321162, No Iterations 3
smoothSolver:  Solving for Uz, Initial residual = 0.0013908268, Final residual = 4.9344674e-05, No Iterations 3
GAMG:  Solving for p, Initial residual = 0.020698779, Final residual = 0.00020376551, No Iterations 3
time step continuity errors : sum local = 3.8835579e-05, global = 6.1622789e-07, cumulative = -0.00037071136
ExecutionTime = 9.780621 s  ClockTime = 10 s

Time = 71s

smoothSolver:  Solving for Ux, Initial residual = 0.0018241701, Final residual = 6.3971888e-05, No Iterations 3
smoothSolver:  Solving for Uy, Initial residual = 0.010488273, Final residual = 0.00036616536, No Iterations 3
smoothSolver:  Solving for Uz, Initial residual = 0.0013766025, Final residual = 4.8889618e-05, No Iterations 3
GAMG:  Solving for p, Initial residual = 0.020545695, Final residual = 0.00011783538, No Iterations 4
time step continuity errors : sum local = 2.2535224e-05, global = 3.6155812e-07, cumulative = -0.0003703498
ExecutionTime = 9.914621 s  ClockTime = 10 s

Time = 72s

smoothSolver:  Solving for Ux, Initial residual = 0.0018174879, Final residual = 6.3856992e-05, No Iterations 3
smoothSolver:  Solving for Uy, Initial residual = 0.01027757, Final residual = 0.00035904128, No Iterations 3
smoothSolver:  Solving for Uz, Initial residual = 0.0013610477, Final residual = 4.8376131e-05, No Iterations 3
GAMG:  Solving for p, Initial residual = 0.020442025, Final residual = 0.00011448638, No Iterations 4
time step continuity errors : sum local = 2.1954757e-05, global = 3.5840223e-07, cumulative = -0.0003699914
ExecutionTime = 10.046862 s  ClockTime = 10 s

Time = 73s

smoothSolver:  Solving for Ux, Initial residual = 0.0018101956, Final residual = 6.3721817e-05, No Iterations 3
smoothSolver:  Solving for Uy, Initial residual = 0.010076751, Final residual = 0.00035227702, No Iterations 3
smoothSolver:  Solving for Uz, Initial residual = 0.0013457174, Final residual = 4.7880959e-05, No Iterations 3
GAMG:  Solving for p, Initial residual = 0.0202574, Final residual = 0.00020032851, No Iterations 3
time step continuity errors : sum local = 3.8517513e-05, global = 6.2025239e-07, cumulative = -0.00036937115
ExecutionTime = 10.171194 s  ClockTime = 10 s

Time = 74s

smoothSolver:  Solving for Ux, Initial residual = 0.0018007197, Final residual = 6.3485137e-05, No Iterations 3
smoothSolver:  Solving for Uy, Initial residual = 0.0098953556, Final residual = 0.0003462522, No Iterations 3
smoothSolver:  Solving for Uz, Initial residual = 0.001331911, Final residual = 4.7449994e-05, No Iterations 3
GAMG:  Solving for p, Initial residual = 0.019994134, Final residual = 0.00011399931, No Iterations 4
time step continuity errors : sum local = 2.1987299e-05, global = 4.3176526e-07, cumulative = -0.00036893938
ExecutionTime = 10.304212 s  ClockTime = 11 s

Time = 75s

smoothSolver:  Solving for Ux, Initial residual = 0.0017943596, Final residual = 6.3330547e-05, No Iterations 3
smoothSolver:  Solving for Uy, Initial residual = 0.0097269699, Final residual = 0.00034065405, No Iterations 3
smoothSolver:  Solving for Uz, Initial residual = 0.0013178413, Final residual = 4.6991884e-05, No Iterations 3
GAMG:  Solving for p, Initial residual = 0.019791806, Final residual = 0.00010737155, No Iterations 4
time step continuity errors : sum local = 2.0763727e-05, global = 4.4795058e-07, cumulative = -0.00036849143
ExecutionTime = 10.436831 s  ClockTime = 11 s

Time = 76s

smoothSolver:  Solving for Ux, Initial residual = 0.001787597, Final residual = 6.3141525e-05, No Iterations 3
smoothSolver:  Solving for Uy, Initial residual = 0.0095658829, Final residual = 0.00033538001, No Iterations 3
smoothSolver:  Solving for Uz, Initial residual = 0.0013045927, Final residual = 4.6555428e-05, No Iterations 3
GAMG:  Solving for p, Initial residual = 0.019641776, Final residual = 0.00018888787, No Iterations 3
time step continuity errors : sum local = 3.6633018e-05, global = 7.3836727e-07, cumulative = -0.00036775306
ExecutionTime = 10.560947 s  ClockTime = 11 s

Time = 77s

smoothSolver:  Solving for Ux, Initial residual = 0.0017786537, Final residual = 6.2867167e-05, No Iterations 3
smoothSolver:  Solving for Uy, Initial residual = 0.0094124202, Final residual = 0.00033044395, No Iterations 3
smoothSolver:  Solving for Uz, Initial residual = 0.0012923798, Final residual = 4.615758e-05, No Iterations 3
GAMG:  Solving for p, Initial residual = 0.019487784, Final residual = 0.00010413224, No Iterations 4
time step continuity errors : sum local = 2.0263433e-05, global = 4.4520949e-07, cumulative = -0.00036730786
ExecutionTime = 10.695887 s  ClockTime = 11 s

Time = 78s

smoothSolver:  Solving for Ux, Initial residual = 0.0017725197, Final residual = 6.2713152e-05, No Iterations 3
smoothSolver:  Solving for Uy, Initial residual = 0.0092712796, Final residual = 0.00032568745, No Iterations 3
smoothSolver:  Solving for Uz, Initial residual = 0.0012797043, Final residual = 4.5735535e-05, No Iterations 3
GAMG:  Solving for p, Initial residual = 0.019443567, Final residual = 0.00019362224, No Iterations 3
time step continuity errors : sum local = 3.7798161e-05, global = 6.989065e-07, cumulative = -0.00036660895
ExecutionTime = 10.820757 s  ClockTime = 11 s

Time = 79s

smoothSolver:  Solving for Ux, Initial residual = 0.0017644195, Final residual = 6.2505184e-05, No Iterations 3
smoothSolver:  Solving for Uy, Initial residual = 0.0091429722, Final residual = 0.00032136149, No Iterations 3
smoothSolver:  Solving for Uz, Initial residual = 0.0012676563, Final residual = 4.5343912e-05, No Iterations 3
GAMG:  Solving for p, Initial residual = 0.019314318, Final residual = 0.00010679898, No Iterations 4
time step continuity errors : sum local = 2.0919141e-05, global = 3.8122061e-07, cumulative = -0.00036622773
ExecutionTime = 10.954418 s  ClockTime = 11 s

Time = 80s

smoothSolver:  Solving for Ux, Initial residual = 0.0017589124, Final residual = 6.2424793e-05, No Iterations 3
smoothSolver:  Solving for Uy, Initial residual = 0.009022351, Final residual = 0.00031724422, No Iterations 3
smoothSolver:  Solving for Uz, Initial residual = 0.0012551702, Final residual = 4.4933136e-05, No Iterations 3
GAMG:  Solving for p, Initial residual = 0.019219155, Final residual = 0.00010300872, No Iterations 4
time step continuity errors : sum local = 2.0239226e-05, global = 3.4259441e-07, cumulative = -0.00036588513
ExecutionTime = 11.087643 s  ClockTime = 11 s

Time = 81s

smoothSolver:  Solving for Ux, Initial residual = 0.0017522593, Final residual = 6.2300808e-05, No Iterations 3
smoothSolver:  Solving for Uy, Initial residual = 0.0089024531, Final residual = 0.00031311314, No Iterations 3
smoothSolver:  Solving for Uz, Initial residual = 0.00124279, Final residual = 4.4528488e-05, No Iterations 3
GAMG:  Solving for p, Initial residual = 0.019092562, Final residual = 0.00018536646, No Iterations 3
time step continuity errors : sum local = 3.6532915e-05, global = 4.9965495e-07, cumulative = -0.00036538548
ExecutionTime = 11.21175 s  ClockTime = 12 s

Time = 82s

smoothSolver:  Solving for Ux, Initial residual = 0.0017427392, Final residual = 6.2079568e-05, No Iterations 3
smoothSolver:  Solving for Uy, Initial residual = 0.0087769717, Final residual = 0.0003088337, No Iterations 3
smoothSolver:  Solving for Uz, Initial residual = 0.0012309103, Final residual = 4.4157028e-05, No Iterations 3
GAMG:  Solving for p, Initial residual = 0.018923663, Final residual = 0.00010224343, No Iterations 4
time step continuity errors : sum local = 2.0214816e-05, global = 3.1931183e-07, cumulative = -0.00036506617
ExecutionTime = 11.344981 s  ClockTime = 12 s

Time = 83s

smoothSolver:  Solving for Ux, Initial residual = 0.0017355574, Final residual = 6.1959404e-05, No Iterations 3
smoothSolver:  Solving for Uy, Initial residual = 0.0086532797, Final residual = 0.00030458569, No Iterations 3
smoothSolver:  Solving for Uz, Initial residual = 0.0012183653, Final residual = 4.3755456e-05, No Iterations 3
GAMG:  Solving for p, Initial residual = 0.01881759, Final residual = 9.9532675e-05, No Iterations 4
time step continuity errors : sum local = 1.9733833e-05, global = 3.271409e-07, cumulative = -0.00036473903
ExecutionTime = 11.478605 s  ClockTime = 12 s

Time = 84s

smoothSolver:  Solving for Ux, Initial residual = 0.0017277902, Final residual = 6.1822017e-05, No Iterations 3
smoothSolver:  Solving for Uy, Initial residual = 0.0085339235, Final residual = 0.00030044418, No Iterations 3
smoothSolver:  Solving for Uz, Initial residual = 0.0012059871, Final residual = 4.335902e-05, No Iterations 3
GAMG:  Solving for p, Initial residual = 0.018741346, Final residual = 0.00018328026, No Iterations 3
time step continuity errors : sum local = 3.6439339e-05, global = 5.4314545e-07, cumulative = -0.00036419588
ExecutionTime = 11.602732 s  ClockTime = 12 s

Time = 85s

smoothSolver:  Solving for Ux, Initial residual = 0.0017181021, Final residual = 6.1606652e-05, No Iterations 3
smoothSolver:  Solving for Uy, Initial residual = 0.008416743, Final residual = 0.00029650019, No Iterations 3
smoothSolver:  Solving for Uz, Initial residual = 0.001194367, Final residual = 4.2988927e-05, No Iterations 3
GAMG:  Solving for p, Initial residual = 0.018602189, Final residual = 0.00010146763, No Iterations 4
time step continuity errors : sum local = 2.0232869e-05, global = 3.8863183e-07, cumulative = -0.00036380725
ExecutionTime = 11.735616 s  ClockTime = 12 s

Time = 86s

smoothSolver:  Solving for Ux, Initial residual = 0.0017107896, Final residual = 6.1458551e-05, No Iterations 3
smoothSolver:  Solving for Uy, Initial residual = 0.0083090924, Final residual = 0.00029274201, No Iterations 3
smoothSolver:  Solving for Uz, Initial residual = 0.0011821708, Final residual = 4.2585623e-05, No Iterations 3
GAMG:  Solving for p, Initial residual = 0.018533674, Final residual = 9.7928679e-05, No Iterations 4
time step continuity errors : sum local = 1.957668e-05, global = 3.9183403e-07, cumulative = -0.00036341541
ExecutionTime = 11.869062 s  ClockTime = 12 s

Time = 87s

smoothSolver:  Solving for Ux, Initial residual = 0.0017030466, Final residual = 6.1277308e-05, No Iterations 3
smoothSolver:  Solving for Uy, Initial residual = 0.0082047157, Final residual = 0.00028906585, No Iterations 3
smoothSolver:  Solving for Uz, Initial residual = 0.001170397, Final residual = 4.2189927e-05, No Iterations 3
GAMG:  Solving for p, Initial residual = 0.018487312, Final residual = 0.00017681677, No Iterations 3
time step continuity errors : sum local = 3.5440553e-05, global = 6.0984033e-07, cumulative = -0.00036280557
ExecutionTime = 11.995008 s  ClockTime = 12 s

Time = 88s

smoothSolver:  Solving for Ux, Initial residual = 0.0016934816, Final residual = 6.0994722e-05, No Iterations 3
smoothSolver:  Solving for Uy, Initial residual = 0.0081036463, Final residual = 0.00028543639, No Iterations 3
smoothSolver:  Solving for Uz, Initial residual = 0.00115938, Final residual = 4.1826933e-05, No Iterations 3
GAMG:  Solving for p, Initial residual = 0.01836115, Final residual = 9.7242253e-05, No Iterations 4
time step continuity errors : sum local = 1.954924e-05, global = 3.6931746e-07, cumulative = -0.00036243626
ExecutionTime = 12.128973 s  ClockTime = 12 s

Time = 89s

smoothSolver:  Solving for Ux, Initial residual = 0.0016864902, Final residual = 6.0811181e-05, No Iterations 3
smoothSolver:  Solving for Uy, Initial residual = 0.0080199707, Final residual = 0.0002824432, No Iterations 3
smoothSolver:  Solving for Uz, Initial residual = 0.0011484299, Final residual = 4.1456295e-05, No Iterations 3
GAMG:  Solving for p, Initial residual = 0.018211175, Final residual = 9.4223608e-05, No Iterations 4
time step continuity errors : sum local = 1.8994332e-05, global = 3.2968132e-07, cumulative = -0.00036210658
ExecutionTime = 12.26269 s  ClockTime = 13 s

Time = 90s

smoothSolver:  Solving for Ux, Initial residual = 0.0016792839, Final residual = 6.0641783e-05, No Iterations 3
smoothSolver:  Solving for Uy, Initial residual = 0.0079432069, Final residual = 0.00027968816, No Iterations 3
smoothSolver:  Solving for Uz, Initial residual = 0.0011378629, Final residual = 4.1104029e-05, No Iterations 3
GAMG:  Solving for p, Initial residual = 0.018024863, Final residual = 0.0001752779, No Iterations 3
time step continuity errors : sum local = 3.5430054e-05, global = 4.7820986e-07, cumulative = -0.00036162837
ExecutionTime = 12.388608 s  ClockTime = 13 s

Time = 91s

smoothSolver:  Solving for Ux, Initial residual = 0.0016700825, Final residual = 6.0400131e-05, No Iterations 3
smoothSolver:  Solving for Uy, Initial residual = 0.0078608044, Final residual = 0.00027682842, No Iterations 3
smoothSolver:  Solving for Uz, Initial residual = 0.0011275984, Final residual = 4.0769118e-05, No Iterations 3
GAMG:  Solving for p, Initial residual = 0.017882479, Final residual = 9.6191194e-05, No Iterations 4
time step continuity errors : sum local = 1.9499184e-05, global = 2.9817278e-07, cumulative = -0.00036133019
ExecutionTime = 12.5222 s  ClockTime = 13 s

Time = 92s

smoothSolver:  Solving for Ux, Initial residual = 0.0016629858, Final residual = 6.0232934e-05, No Iterations 3
smoothSolver:  Solving for Uy, Initial residual = 0.0077855102, Final residual = 0.00027410612, No Iterations 3
smoothSolver:  Solving for Uz, Initial residual = 0.0011166948, Final residual = 4.0403398e-05, No Iterations 3
GAMG:  Solving for p, Initial residual = 0.017810896, Final residual = 9.3085736e-05, No Iterations 4
time step continuity errors : sum local = 1.8917265e-05, global = 2.9575995e-07, cumulative = -0.00036103443
ExecutionTime = 12.655259 s  ClockTime = 13 s

Time = 93s

smoothSolver:  Solving for Ux, Initial residual = 0.0016551498, Final residual = 6.0041894e-05, No Iterations 3
smoothSolver:  Solving for Uy, Initial residual = 0.0077084581, Final residual = 0.00027121289, No Iterations 3
smoothSolver:  Solving for Uz, Initial residual = 0.0011057892, Final residual = 4.0038472e-05, No Iterations 3
GAMG:  Solving for p, Initial residual = 0.01774058, Final residual = 0.00017185798, No Iterations 3
time step continuity errors : sum local = 3.501196e-05, global = 4.6424365e-07, cumulative = -0.00036057019
ExecutionTime = 12.781185 s  ClockTime = 13 s

Time = 94s

smoothSolver:  Solving for Ux, Initial residual = 0.0016454588, Final residual = 5.9770309e-05, No Iterations 3
smoothSolver:  Solving for Uy, Initial residual = 0.0076257121, Final residual = 0.00026814764, No Iterations 3
smoothSolver:  Solving for Uz, Initial residual = 0.0010954096, Final residual = 3.9694364e-05, No Iterations 3
GAMG:  Solving for p, Initial residual = 0.017673736, Final residual = 9.2493798e-05, No Iterations 4
time step continuity errors : sum local = 1.8893234e-05, global = 3.3685326e-07, cumulative = -0.00036023334
ExecutionTime = 12.914531 s  ClockTime = 13 s

Time = 95s

smoothSolver:  Solving for Ux, Initial residual = 0.0016378805, Final residual = 5.9549113e-05, No Iterations 3
smoothSolver:  Solving for Uy, Initial residual = 0.0075578033, Final residual = 0.00026558998, No Iterations 3
smoothSolver:  Solving for Uz, Initial residual = 0.0010849028, Final residual = 3.933959e-05, No Iterations 3
GAMG:  Solving for p, Initial residual = 0.017642105, Final residual = 0.00017411676, No Iterations 3
time step continuity errors : sum local = 3.5650253e-05, global = 5.4257177e-07, cumulative = -0.00035969076
ExecutionTime = 13.040535 s  ClockTime = 13 s

Time = 96s

smoothSolver:  Solving for Ux, Initial residual = 0.001629138, Final residual = 5.9274435e-05, No Iterations 3
smoothSolver:  Solving for Uy, Initial residual = 0.0074924998, Final residual = 0.00026328503, No Iterations 3
smoothSolver:  Solving for Uz, Initial residual = 0.0010752015, Final residual = 3.9021044e-05, No Iterations 3
GAMG:  Solving for p, Initial residual = 0.017564758, Final residual = 9.2868859e-05, No Iterations 4
time step continuity errors : sum local = 1.9064207e-05, global = 3.606823e-07, cumulative = -0.00035933008
ExecutionTime = 13.173763 s  ClockTime = 14 s

Time = 97s

smoothSolver:  Solving for Ux, Initial residual = 0.0016228366, Final residual = 5.9089615e-05, No Iterations 3
smoothSolver:  Solving for Uy, Initial residual = 0.0074515774, Final residual = 0.00026189605, No Iterations 3
smoothSolver:  Solving for Uz, Initial residual = 0.0010657215, Final residual = 3.8703701e-05, No Iterations 3
GAMG:  Solving for p, Initial residual = 0.017492027, Final residual = 0.00017271387, No Iterations 3
time step continuity errors : sum local = 3.5535882e-05, global = 5.550837e-07, cumulative = -0.000358775
ExecutionTime = 13.299966 s  ClockTime = 14 s

Time = 98s

smoothSolver:  Solving for Ux, Initial residual = 0.0016150692, Final residual = 5.883847e-05, No Iterations 3
smoothSolver:  Solving for Uy, Initial residual = 0.0074037784, Final residual = 0.00026021114, No Iterations 3
smoothSolver:  Solving for Uz, Initial residual = 0.0010565889, Final residual = 3.8403774e-05, No Iterations 3
GAMG:  Solving for p, Initial residual = 0.017388207, Final residual = 9.0377965e-05, No Iterations 4
time step continuity errors : sum local = 1.8640603e-05, global = 3.3950209e-07, cumulative = -0.0003584355
ExecutionTime = 13.433456 s  ClockTime = 14 s

Time = 99s

smoothSolver:  Solving for Ux, Initial residual = 0.0016087082, Final residual = 5.8650753e-05, No Iterations 3
smoothSolver:  Solving for Uy, Initial residual = 0.0073590373, Final residual = 0.00025855915, No Iterations 3
smoothSolver:  Solving for Uz, Initial residual = 0.0010470411, Final residual = 3.8084248e-05, No Iterations 3
GAMG:  Solving for p, Initial residual = 0.01738115, Final residual = 0.00016675781, No Iterations 3
time step continuity errors : sum local = 3.4469206e-05, global = 5.0089133e-07, cumulative = -0.00035793461
ExecutionTime = 13.559414 s  ClockTime = 14 s

Time = 100s

smoothSolver:  Solving for Ux, Initial residual = 0.0015998669, Final residual = 5.8376644e-05, No Iterations 3
smoothSolver:  Solving for Uy, Initial residual = 0.0072887733, Final residual = 0.00025595469, No Iterations 3
smoothSolver:  Solving for Uz, Initial residual = 0.0010374577, Final residual = 3.7768878e-05, No Iterations 3
GAMG:  Solving for p, Initial residual = 0.017233906, Final residual = 0.00017233063, No Iterations 3
time step continuity errors : sum local = 3.5703493e-05, global = 5.0604747e-07, cumulative = -0.00035742856
ExecutionTime = 13.684968 s  ClockTime = 14 s

Time = 101s

smoothSolver:  Solving for Ux, Initial residual = 0.00159094, Final residual = 5.8097517e-05, No Iterations 3
smoothSolver:  Solving for Uy, Initial residual = 0.0072130302, Final residual = 0.00025307332, No Iterations 3
smoothSolver:  Solving for Uz, Initial residual = 0.0010274151, Final residual = 3.743356e-05, No Iterations 3
GAMG:  Solving for p, Initial residual = 0.017075813, Final residual = 9.4327146e-05, No Iterations 4
time step continuity errors : sum local = 1.9586903e-05, global = 3.3188428e-07, cumulative = -0.00035709667
ExecutionTime = 13.816965 s  ClockTime = 14 s

Time = 102s

smoothSolver:  Solving for Ux, Initial residual = 0.0015825773, Final residual = 5.7827701e-05, No Iterations 3
smoothSolver:  Solving for Uy, Initial residual = 0.0071433184, Final residual = 0.00025039016, No Iterations 3
smoothSolver:  Solving for Uz, Initial residual = 0.0010168781, Final residual = 3.7070744e-05, No Iterations 3
GAMG:  Solving for p, Initial residual = 0.016980959, Final residual = 8.9593378e-05, No Iterations 4
time step continuity errors : sum local = 1.863947e-05, global = 3.2301856e-07, cumulative = -0.00035677365
ExecutionTime = 13.949339 s  ClockTime = 14 s

Time = 103s

smoothSolver:  Solving for Ux, Initial residual = 0.0015738429, Final residual = 5.7538472e-05, No Iterations 3
smoothSolver:  Solving for Uy, Initial residual = 0.0070809289, Final residual = 0.00024807473, No Iterations 3
smoothSolver:  Solving for Uz, Initial residual = 0.0010068485, Final residual = 3.6729385e-05, No Iterations 3
GAMG:  Solving for p, Initial residual = 0.016902579, Final residual = 0.00015631359, No Iterations 3
time step continuity errors : sum local = 3.258812e-05, global = 4.8700817e-07, cumulative = -0.00035628665
ExecutionTime = 14.076641 s  ClockTime = 14 s

Time = 104s

smoothSolver:  Solving for Ux, Initial residual = 0.0015642824, Final residual = 5.7220567e-05, No Iterations 3
smoothSolver:  Solving for Uy, Initial residual = 0.0070238763, Final residual = 0.00024613362, No Iterations 3
smoothSolver:  Solving for Uz, Initial residual = 0.0009977978, Final residual = 3.6430079e-05, No Iterations 3
GAMG:  Solving for p, Initial residual = 0.016755211, Final residual = 0.00016169308, No Iterations 3
time step continuity errors : sum local = 3.3793299e-05, global = 5.2058235e-07, cumulative = -0.00035576606
ExecutionTime = 14.204439 s  ClockTime = 15 s

Time = 105s

smoothSolver:  Solving for Ux, Initial residual = 0.0015559628, Final residual = 5.6928378e-05, No Iterations 3
smoothSolver:  Solving for Uy, Initial residual = 0.0069832825, Final residual = 0.0002447649, No Iterations 3
smoothSolver:  Solving for Uz, Initial residual = 0.0009891733, Final residual = 3.614092e-05, No Iterations 3
GAMG:  Solving for p, Initial residual = 0.016647508, Final residual = 8.8376196e-05, No Iterations 4
time step continuity errors : sum local = 1.8515937e-05, global = 3.5944488e-07, cumulative = -0.00035540662
ExecutionTime = 14.337745 s  ClockTime = 15 s

Time = 106s

smoothSolver:  Solving for Ux, Initial residual = 0.0015496309, Final residual = 5.6703463e-05, No Iterations 3
smoothSolver:  Solving for Uy, Initial residual = 0.0069663681, Final residual = 0.0002440443, No Iterations 3
smoothSolver:  Solving for Uz, Initial residual = 0.0009805878, Final residual = 3.5843738e-05, No Iterations 3
GAMG:  Solving for p, Initial residual = 0.016533645, Final residual = 0.00016493759, No Iterations 3
time step continuity errors : sum local = 3.4628247e-05, global = 5.4089798e-07, cumulative = -0.00035486572
ExecutionTime = 14.461596 s  ClockTime = 15 s

Time = 107s

smoothSolver:  Solving for Ux, Initial residual = 0.0015422544, Final residual = 5.6429227e-05, No Iterations 3
smoothSolver:  Solving for Uy, Initial residual = 0.0069326691, Final residual = 0.00024288091, No Iterations 3
smoothSolver:  Solving for Uz, Initial residual = 0.00097223381, Final residual = 3.5558533e-05, No Iterations 3
GAMG:  Solving for p, Initial residual = 0.016386329, Final residual = 8.6616532e-05, No Iterations 4
time step continuity errors : sum local = 1.8227807e-05, global = 3.4536509e-07, cumulative = -0.00035452036
ExecutionTime = 14.595244 s  ClockTime = 15 s

Time = 108s

smoothSolver:  Solving for Ux, Initial residual = 0.0015360225, Final residual = 5.6166835e-05, No Iterations 3
smoothSolver:  Solving for Uy, Initial residual = 0.0069065195, Final residual = 0.00024192159, No Iterations 3
smoothSolver:  Solving for Uz, Initial residual = 0.00096369211, Final residual = 3.5254243e-05, No Iterations 3
GAMG:  Solving for p, Initial residual = 0.016345915, Final residual = 0.00015865614, No Iterations 3
time step continuity errors : sum local = 3.345732e-05, global = 5.1397712e-07, cumulative = -0.00035400638
ExecutionTime = 14.719783 s  ClockTime = 15 s

Time = 109s

smoothSolver:  Solving for Ux, Initial residual = 0.0015279858, Final residual = 5.5832901e-05, No Iterations 3
smoothSolver:  Solving for Uy, Initial residual = 0.0068641288, Final residual = 0.00024041016, No Iterations 3
smoothSolver:  Solving for Uz, Initial residual = 0.00095542668, Final residual = 3.4963366e-05, No Iterations 3
GAMG:  Solving for p, Initial residual = 0.01629374, Final residual = 8.6445309e-05, No Iterations 4
time step continuity errors : sum local = 1.8271347e-05, global = 3.3460992e-07, cumulative = -0.00035367177
ExecutionTime = 14.852222 s  ClockTime = 15 s

Time = 110s

smoothSolver:  Solving for Ux, Initial residual = 0.00152056, Final residual = 5.5511693e-05, No Iterations 3
smoothSolver:  Solving for Uy, Initial residual = 0.0068349397, Final residual = 0.00023930885, No Iterations 3
smoothSolver:  Solving for Uz, Initial residual = 0.00094701325, Final residual = 3.4656558e-05, No Iterations 3
GAMG:  Solving for p, Initial residual = 0.016271887, Final residual = 0.00015855193, No Iterations 3
time step continuity errors : sum local = 3.3579514e-05, global = 5.0284559e-07, cumulative = -0.00035316892
ExecutionTime = 14.978336 s  ClockTime = 15 s

Time = 111s

smoothSolver:  Solving for Ux, Initial residual = 0.0015121096, Final residual = 5.5153625e-05, No Iterations 3
smoothSolver:  Solving for Uy, Initial residual = 0.0067909481, Final residual = 0.00023783405, No Iterations 3
smoothSolver:  Solving for Uz, Initial residual = 0.00093891222, Final residual = 3.4367927e-05, No Iterations 3
GAMG:  Solving for p, Initial residual = 0.016193468, Final residual = 8.7235626e-05, No Iterations 4
time step continuity errors : sum local = 1.8516763e-05, global = 3.2360024e-07, cumulative = -0.00035284532
ExecutionTime = 15.110157 s  ClockTime = 15 s

Time = 112s

smoothSolver:  Solving for Ux, Initial residual = 0.0015046047, Final residual = 5.4823943e-05, No Iterations 3
smoothSolver:  Solving for Uy, Initial residual = 0.0067583863, Final residual = 0.00023673224, No Iterations 3
smoothSolver:  Solving for Uz, Initial residual = 0.0009305835, Final residual = 3.4063591e-05, No Iterations 3
GAMG:  Solving for p, Initial residual = 0.016185778, Final residual = 0.0001573247, No Iterations 3
time step continuity errors : sum local = 3.3452444e-05, global = 5.0830932e-07, cumulative = -0.00035233701
ExecutionTime = 15.236286 s  ClockTime = 16 s

Time = 113s

smoothSolver:  Solving for Ux, Initial residual = 0.0014963109, Final residual = 5.4489037e-05, No Iterations 3
smoothSolver:  Solving for Uy, Initial residual = 0.0067119481, Final residual = 0.000235157, No Iterations 3
smoothSolver:  Solving for Uz, Initial residual = 0.00092257596, Final residual = 3.3774632e-05, No Iterations 3
GAMG:  Solving for p, Initial residual = 0.016104372, Final residual = 8.6591716e-05, No Iterations 4
time step continuity errors : sum local = 1.8451141e-05, global = 3.3886383e-07, cumulative = -0.00035199815
ExecutionTime = 15.369606 s  ClockTime = 16 s

Time = 114s

smoothSolver:  Solving for Ux, Initial residual = 0.0014890436, Final residual = 5.4195097e-05, No Iterations 3
smoothSolver:  Solving for Uy, Initial residual = 0.0066801376, Final residual = 0.00023409041, No Iterations 3
smoothSolver:  Solving for Uz, Initial residual = 0.00091451716, Final residual = 3.3474488e-05, No Iterations 3
GAMG:  Solving for p, Initial residual = 0.016068272, Final residual = 0.00015317667, No Iterations 3
time step continuity errors : sum local = 3.2693527e-05, global = 5.3551629e-07, cumulative = -0.00035146263
ExecutionTime = 15.495268 s  ClockTime = 16 s

Time = 115s

smoothSolver:  Solving for Ux, Initial residual = 0.0014811503, Final residual = 5.3879205e-05, No Iterations 3
smoothSolver:  Solving for Uy, Initial residual = 0.0066407694, Final residual = 0.00023284884, No Iterations 3
smoothSolver:  Solving for Uz, Initial residual = 0.00090683296, Final residual = 3.3192481e-05, No Iterations 3
GAMG:  Solving for p, Initial residual = 0.015979086, Final residual = 0.00015774732, No Iterations 3
time step continuity errors : sum local = 3.3739263e-05, global = 5.7701264e-07, cumulative = -0.00035088562
ExecutionTime = 15.619915 s  ClockTime = 16 s

Time = 116s

smoothSolver:  Solving for Ux, Initial residual = 0.0014737845, Final residual = 5.3574202e-05, No Iterations 3
smoothSolver:  Solving for Uy, Initial residual = 0.0066090056, Final residual = 0.00023201973, No Iterations 3
smoothSolver:  Solving for Uz, Initial residual = 0.00089932687, Final residual = 3.2915947e-05, No Iterations 3
GAMG:  Solving for p, Initial residual = 0.015889214, Final residual = 8.9220509e-05, No Iterations 4
time step continuity errors : sum local = 1.9121837e-05, global = 3.6802125e-07, cumulative = -0.0003505176
ExecutionTime = 15.752783 s  ClockTime = 16 s

Time = 117s

smoothSolver:  Solving for Ux, Initial residual = 0.0014674027, Final residual = 5.3303609e-05, No Iterations 3
smoothSolver:  Solving for Uy, Initial residual = 0.006592006, Final residual = 0.00023173869, No Iterations 3
smoothSolver:  Solving for Uz, Initial residual = 0.00089187907, Final residual = 3.2636162e-05, No Iterations 3
GAMG:  Solving for p, Initial residual = 0.015856963, Final residual = 0.00015677385, No Iterations 3
time step continuity errors : sum local = 3.3654551e-05, global = 6.0061253e-07, cumulative = -0.00034991699
ExecutionTime = 15.877848 s  ClockTime = 16 s

Time = 118s

smoothSolver:  Solving for Ux, Initial residual = 0.0014601968, Final residual = 5.3029973e-05, No Iterations 3
smoothSolver:  Solving for Uy, Initial residual = 0.0065604662, Final residual = 0.00023089117, No Iterations 3
smoothSolver:  Solving for Uz, Initial residual = 0.00088471951, Final residual = 3.2372891e-05, No Iterations 3
GAMG:  Solving for p, Initial residual = 0.015752836, Final residual = 8.7887527e-05, No Iterations 4
time step continuity errors : sum local = 1.8906131e-05, global = 3.6942067e-07, cumulative = -0.00034954757
ExecutionTime = 16.010908 s  ClockTime = 16 s

Time = 119s

smoothSolver:  Solving for Ux, Initial residual = 0.0014536892, Final residual = 5.2782923e-05, No Iterations 3
smoothSolver:  Solving for Uy, Initial residual = 0.0065390132, Final residual = 0.00023034284, No Iterations 3
smoothSolver:  Solving for Uz, Initial residual = 0.00087757466, Final residual = 3.2100321e-05, No Iterations 3
GAMG:  Solving for p, Initial residual = 0.015651084, Final residual = 0.00015295988, No Iterations 3
time step continuity errors : sum local = 3.2961626e-05, global = 5.5117313e-07, cumulative = -0.00034899639
ExecutionTime = 16.136579 s  ClockTime = 17 s

Time = 120s

smoothSolver:  Solving for Ux, Initial residual = 0.0014463389, Final residual = 5.2508264e-05, No Iterations 3
smoothSolver:  Solving for Uy, Initial residual = 0.0064991131, Final residual = 0.00022919113, No Iterations 3
smoothSolver:  Solving for Uz, Initial residual = 0.00087059783, Final residual = 3.1839842e-05, No Iterations 3
GAMG:  Solving for p, Initial residual = 0.015456021, Final residual = 8.6774556e-05, No Iterations 4
time step continuity errors : sum local = 1.8738525e-05, global = 3.429674e-07, cumulative = -0.00034865343
ExecutionTime = 16.269498 s  ClockTime = 17 s

Time = 121s

smoothSolver:  Solving for Ux, Initial residual = 0.0014398147, Final residual = 5.2249199e-05, No Iterations 3
smoothSolver:  Solving for Uy, Initial residual = 0.006467665, Final residual = 0.00022842276, No Iterations 3
smoothSolver:  Solving for Uz, Initial residual = 0.00086344986, Final residual = 3.1568809e-05, No Iterations 3
GAMG:  Solving for p, Initial residual = 0.015346166, Final residual = 0.00015175526, No Iterations 3
time step continuity errors : sum local = 3.2823957e-05, global = 5.2893739e-07, cumulative = -0.00034812449
ExecutionTime = 16.395323 s  ClockTime = 17 s

Time = 122s

smoothSolver:  Solving for Ux, Initial residual = 0.0014327113, Final residual = 5.197383e-05, No Iterations 3
smoothSolver:  Solving for Uy, Initial residual = 0.0064228421, Final residual = 0.0002271712, No Iterations 3
smoothSolver:  Solving for Uz, Initial residual = 0.00085633513, Final residual = 3.1305127e-05, No Iterations 3
GAMG:  Solving for p, Initial residual = 0.015196297, Final residual = 8.6799614e-05, No Iterations 4
time step continuity errors : sum local = 1.881087e-05, global = 3.2621443e-07, cumulative = -0.00034779827
ExecutionTime = 16.527486 s  ClockTime = 17 s

Time = 123s

smoothSolver:  Solving for Ux, Initial residual = 0.0014260021, Final residual = 5.1714066e-05, No Iterations 3
smoothSolver:  Solving for Uy, Initial residual = 0.0063899857, Final residual = 0.00022635332, No Iterations 3
smoothSolver:  Solving for Uz, Initial residual = 0.00084908449, Final residual = 3.102922e-05, No Iterations 3
GAMG:  Solving for p, Initial residual = 0.015127041, Final residual = 0.00015113545, No Iterations 3
time step continuity errors : sum local = 3.2798087e-05, global = 5.4588149e-07, cumulative = -0.00034725239
ExecutionTime = 16.652881 s  ClockTime = 17 s

Time = 124s

smoothSolver:  Solving for Ux, Initial residual = 0.0014188241, Final residual = 5.1449113e-05, No Iterations 3
smoothSolver:  Solving for Uy, Initial residual = 0.0063522734, Final residual = 0.00022535436, No Iterations 3
smoothSolver:  Solving for Uz, Initial residual = 0.00084208964, Final residual = 3.0771874e-05, No Iterations 3
GAMG:  Solving for p, Initial residual = 0.015029464, Final residual = 8.5634614e-05, No Iterations 4
time step continuity errors : sum local = 1.8617981e-05, global = 3.6357479e-07, cumulative = -0.00034688882
ExecutionTime = 16.785516 s  ClockTime = 17 s

Time = 125s

smoothSolver:  Solving for Ux, Initial residual = 0.001412563, Final residual = 5.1207445e-05, No Iterations 3
smoothSolver:  Solving for Uy, Initial residual = 0.0063376929, Final residual = 0.00022523436, No Iterations 3
smoothSolver:  Solving for Uz, Initial residual = 0.00083547049, Final residual = 3.0521803e-05, No Iterations 3
GAMG:  Solving for p, Initial residual = 0.01500292, Final residual = 8.029129e-05, No Iterations 4
time step continuity errors : sum local = 1.7481195e-05, global = 3.8186921e-07, cumulative = -0.00034650695
ExecutionTime = 16.919184 s  ClockTime = 17 s

Time = 126s

smoothSolver:  Solving for Ux, Initial residual = 0.001406639, Final residual = 5.0975604e-05, No Iterations 3
smoothSolver:  Solving for Uy, Initial residual = 0.0063283086, Final residual = 0.00022531995, No Iterations 3
smoothSolver:  Solving for Uz, Initial residual = 0.00082938113, Final residual = 3.029173e-05, No Iterations 3
GAMG:  Solving for p, Initial residual = 0.014940502, Final residual = 0.00014633432, No Iterations 3
time step continuity errors : sum local = 3.1910668e-05, global = 5.1392534e-07, cumulative = -0.00034599302
ExecutionTime = 17.044204 s  ClockTime = 17 s

Time = 127s

smoothSolver:  Solving for Ux, Initial residual = 0.0014000918, Final residual = 5.0717653e-05, No Iterations 3
smoothSolver:  Solving for Uy, Initial residual = 0.0063077255, Final residual = 0.00022485885, No Iterations 3
smoothSolver:  Solving for Uz, Initial residual = 0.00082358737, Final residual = 3.0079755e-05, No Iterations 3
GAMG:  Solving for p, Initial residual = 0.014868371, Final residual = 7.7267603e-05, No Iterations 4
time step continuity errors : sum local = 1.6882333e-05, global = 3.6942542e-07, cumulative = -0.0003456236
ExecutionTime = 17.177529 s  ClockTime = 18 s

Time = 128s

smoothSolver:  Solving for Ux, Initial residual = 0.0013951396, Final residual = 5.0499373e-05, No Iterations 3
smoothSolver:  Solving for Uy, Initial residual = 0.0063004709, Final residual = 0.0002248727, No Iterations 3
smoothSolver:  Solving for Uz, Initial residual = 0.00081797858, Final residual = 2.9866161e-05, No Iterations 3
GAMG:  Solving for p, Initial residual = 0.014850386, Final residual = 7.5910036e-05, No Iterations 4
time step continuity errors : sum local = 1.6614301e-05, global = 3.5482587e-07, cumulative = -0.00034526877
ExecutionTime = 17.311374 s  ClockTime = 18 s

Time = 129s

smoothSolver:  Solving for Ux, Initial residual = 0.0013900006, Final residual = 5.0267082e-05, No Iterations 3
smoothSolver:  Solving for Uy, Initial residual = 0.0062850181, Final residual = 0.00022458457, No Iterations 3
smoothSolver:  Solving for Uz, Initial residual = 0.00081236384, Final residual = 2.9650237e-05, No Iterations 3
GAMG:  Solving for p, Initial residual = 0.014826135, Final residual = 0.00014669053, No Iterations 3
time step continuity errors : sum local = 3.2160121e-05, global = 4.8300317e-07, cumulative = -0.00034478577
ExecutionTime = 17.436321 s  ClockTime = 18 s

Time = 130s

smoothSolver:  Solving for Ux, Initial residual = 0.0013839191, Final residual = 4.9992399e-05, No Iterations 3
smoothSolver:  Solving for Uy, Initial residual = 0.0062504194, Final residual = 0.00022338535, No Iterations 3
[...]
GAMG:  Solving for p, Initial residual = 1.3182636e-05, Final residual = 1.0196019e-07, No Iterations 3
time step continuity errors : sum local = 2.6985326e-08, global = -5.3724994e-10, cumulative = -0.00033662611
ExecutionTime = 147.40712 s  ClockTime = 149 s

Time = 1152s

smoothSolver:  Solving for Ux, Initial residual = 9.6437111e-07, Final residual = 3.6369948e-08, No Iterations 3
smoothSolver:  Solving for Uy, Initial residual = 4.9871004e-06, Final residual = 1.8891812e-07, No Iterations 3
smoothSolver:  Solving for Uz, Initial residual = 2.8354211e-07, Final residual = 1.0434146e-08, No Iterations 3
GAMG:  Solving for p, Initial residual = 1.308643e-05, Final residual = 1.0100011e-07, No Iterations 3
time step continuity errors : sum local = 2.6731227e-08, global = -5.358536e-10, cumulative = -0.00033662665
ExecutionTime = 147.53171 s  ClockTime = 149 s

Time = 1153s

smoothSolver:  Solving for Ux, Initial residual = 9.5760912e-07, Final residual = 3.6131326e-08, No Iterations 3
smoothSolver:  Solving for Uy, Initial residual = 4.948784e-06, Final residual = 1.8750247e-07, No Iterations 3
smoothSolver:  Solving for Uz, Initial residual = 2.8147139e-07, Final residual = 1.0361124e-08, No Iterations 3
GAMG:  Solving for p, Initial residual = 1.2991353e-05, Final residual = 1.0017846e-07, No Iterations 3
time step continuity errors : sum local = 2.6513766e-08, global = -5.5752182e-10, cumulative = -0.0003366272
ExecutionTime = 147.65898 s  ClockTime = 149 s

Time = 1154s

smoothSolver:  Solving for Ux, Initial residual = 9.5100318e-07, Final residual = 3.5897797e-08, No Iterations 3
smoothSolver:  Solving for Uy, Initial residual = 4.9104438e-06, Final residual = 1.8612008e-07, No Iterations 3
smoothSolver:  Solving for Uz, Initial residual = 2.7932818e-07, Final residual = 1.0285675e-08, No Iterations 3
GAMG:  Solving for p, Initial residual = 1.28938e-05, Final residual = 9.9469029e-08, No Iterations 3
time step continuity errors : sum local = 2.6326004e-08, global = -5.6041756e-10, cumulative = -0.00033662776
ExecutionTime = 147.78468 s  ClockTime = 150 s

Time = 1155s

smoothSolver:  Solving for Ux, Initial residual = 9.4444699e-07, Final residual = 3.5677695e-08, No Iterations 3
smoothSolver:  Solving for Uy, Initial residual = 4.8715568e-06, Final residual = 1.8474234e-07, No Iterations 3
smoothSolver:  Solving for Uz, Initial residual = 2.7717568e-07, Final residual = 1.0210641e-08, No Iterations 3
GAMG:  Solving for p, Initial residual = 1.2795529e-05, Final residual = 9.88434e-08, No Iterations 3
time step continuity errors : sum local = 2.6160422e-08, global = -5.7082456e-10, cumulative = -0.00033662834
ExecutionTime = 147.9097 s  ClockTime = 150 s

Time = 1156s

smoothSolver:  Solving for Ux, Initial residual = 9.3795782e-07, Final residual = 3.5466305e-08, No Iterations 3
smoothSolver:  Solving for Uy, Initial residual = 4.8324685e-06, Final residual = 1.8338959e-07, No Iterations 3
smoothSolver:  Solving for Uz, Initial residual = 2.7489762e-07, Final residual = 1.0133994e-08, No Iterations 3
GAMG:  Solving for p, Initial residual = 1.2697372e-05, Final residual = 9.8192498e-08, No Iterations 3
time step continuity errors : sum local = 2.5988151e-08, global = -5.7757847e-10, cumulative = -0.00033662891
ExecutionTime = 148.03426 s  ClockTime = 150 s

Time = 1157s

smoothSolver:  Solving for Ux, Initial residual = 9.3159638e-07, Final residual = 3.526045e-08, No Iterations 3
smoothSolver:  Solving for Uy, Initial residual = 4.793639e-06, Final residual = 1.8206085e-07, No Iterations 3
smoothSolver:  Solving for Uz, Initial residual = 2.7260455e-07, Final residual = 1.0058645e-08, No Iterations 3
GAMG:  Solving for p, Initial residual = 1.2599125e-05, Final residual = 9.750302e-08, No Iterations 3
time step continuity errors : sum local = 2.5805671e-08, global = -5.7556704e-10, cumulative = -0.00033662949
ExecutionTime = 148.15724 s  ClockTime = 150 s

Time = 1158s

smoothSolver:  Solving for Ux, Initial residual = 9.2521279e-07, Final residual = 3.5052574e-08, No Iterations 3
smoothSolver:  Solving for Uy, Initial residual = 4.7546461e-06, Final residual = 1.8086192e-07, No Iterations 3
smoothSolver:  Solving for Uz, Initial residual = 2.7038256e-07, Final residual = 9.9864773e-09, No Iterations 3
GAMG:  Solving for p, Initial residual = 1.2498082e-05, Final residual = 9.677921e-08, No Iterations 3
time step continuity errors : sum local = 2.5614104e-08, global = -5.6197525e-10, cumulative = -0.00033663005
ExecutionTime = 148.2821 s  ClockTime = 150 s

Time = 1159s

smoothSolver:  Solving for Ux, Initial residual = 9.1899145e-07, Final residual = 3.4847187e-08, No Iterations 3
smoothSolver:  Solving for Uy, Initial residual = 4.7157345e-06, Final residual = 1.7979453e-07, No Iterations 3
smoothSolver:  Solving for Uz, Initial residual = 2.6824606e-07, Final residual = 9.9176476e-09, No Iterations 3
GAMG:  Solving for p, Initial residual = 1.2390818e-05, Final residual = 9.6033035e-08, No Iterations 3
time step continuity errors : sum local = 2.5416618e-08, global = -5.3774032e-10, cumulative = -0.00033663059
ExecutionTime = 148.40714 s  ClockTime = 150 s

Time = 1160s

smoothSolver:  Solving for Ux, Initial residual = 9.128572e-07, Final residual = 3.4631042e-08, No Iterations 3
smoothSolver:  Solving for Uy, Initial residual = 4.6770355e-06, Final residual = 1.7882133e-07, No Iterations 3
smoothSolver:  Solving for Uz, Initial residual = 2.6609557e-07, Final residual = 9.8500604e-09, No Iterations 3
GAMG:  Solving for p, Initial residual = 1.2283651e-05, Final residual = 9.5318486e-08, No Iterations 3
time step continuity errors : sum local = 2.5227503e-08, global = -4.9599083e-10, cumulative = -0.00033663108
ExecutionTime = 148.53296 s  ClockTime = 150 s

Time = 1161s

smoothSolver:  Solving for Ux, Initial residual = 9.0662828e-07, Final residual = 3.4400947e-08, No Iterations 3
smoothSolver:  Solving for Uy, Initial residual = 4.6398194e-06, Final residual = 1.7796375e-07, No Iterations 3
smoothSolver:  Solving for Uz, Initial residual = 2.6396479e-07, Final residual = 9.7842206e-09, No Iterations 3
GAMG:  Solving for p, Initial residual = 1.217679e-05, Final residual = 9.4798481e-08, No Iterations 3
time step continuity errors : sum local = 2.5089877e-08, global = -4.6932063e-10, cumulative = -0.00033663155
ExecutionTime = 148.65847 s  ClockTime = 150 s

Time = 1162s

smoothSolver:  Solving for Ux, Initial residual = 9.0038981e-07, Final residual = 3.4174007e-08, No Iterations 3
smoothSolver:  Solving for Uy, Initial residual = 4.6033574e-06, Final residual = 1.7714834e-07, No Iterations 3
smoothSolver:  Solving for Uz, Initial residual = 2.6186728e-07, Final residual = 9.7212122e-09, No Iterations 3
GAMG:  Solving for p, Initial residual = 1.2069925e-05, Final residual = 9.4257772e-08, No Iterations 3
time step continuity errors : sum local = 2.4946771e-08, global = -4.2519721e-10, cumulative = -0.00033663198
ExecutionTime = 148.78451 s  ClockTime = 151 s

Time = 1163s

smoothSolver:  Solving for Ux, Initial residual = 8.9395155e-07, Final residual = 3.3952778e-08, No Iterations 3
smoothSolver:  Solving for Uy, Initial residual = 4.5678182e-06, Final residual = 1.7636161e-07, No Iterations 3
smoothSolver:  Solving for Uz, Initial residual = 2.598359e-07, Final residual = 9.6610592e-09, No Iterations 3
GAMG:  Solving for p, Initial residual = 1.1965572e-05, Final residual = 9.3670051e-08, No Iterations 3
time step continuity errors : sum local = 2.4791222e-08, global = -4.0835365e-10, cumulative = -0.00033663239
ExecutionTime = 148.90895 s  ClockTime = 151 s

Time = 1164s

smoothSolver:  Solving for Ux, Initial residual = 8.8755464e-07, Final residual = 3.3725438e-08, No Iterations 3
smoothSolver:  Solving for Uy, Initial residual = 4.5335148e-06, Final residual = 1.7556349e-07, No Iterations 3
smoothSolver:  Solving for Uz, Initial residual = 2.5788792e-07, Final residual = 9.6011409e-09, No Iterations 3
GAMG:  Solving for p, Initial residual = 1.1865143e-05, Final residual = 9.3536619e-08, No Iterations 3
time step continuity errors : sum local = 2.4755908e-08, global = -3.5483398e-10, cumulative = -0.00033663274
ExecutionTime = 149.03173 s  ClockTime = 151 s

Time = 1165s

smoothSolver:  Solving for Ux, Initial residual = 8.8110312e-07, Final residual = 3.3476604e-08, No Iterations 3
smoothSolver:  Solving for Uy, Initial residual = 4.5005879e-06, Final residual = 1.7468864e-07, No Iterations 3
smoothSolver:  Solving for Uz, Initial residual = 2.5595227e-07, Final residual = 9.538372e-09, No Iterations 3
GAMG:  Solving for p, Initial residual = 1.1764282e-05, Final residual = 9.3035001e-08, No Iterations 3
time step continuity errors : sum local = 2.4623149e-08, global = -3.2081518e-10, cumulative = -0.00033663306
ExecutionTime = 149.15675 s  ClockTime = 151 s

Time = 1166s

smoothSolver:  Solving for Ux, Initial residual = 8.7455521e-07, Final residual = 3.3227844e-08, No Iterations 3
smoothSolver:  Solving for Uy, Initial residual = 4.4683301e-06, Final residual = 1.737899e-07, No Iterations 3
smoothSolver:  Solving for Uz, Initial residual = 2.5413501e-07, Final residual = 9.4733702e-09, No Iterations 3
GAMG:  Solving for p, Initial residual = 1.1661722e-05, Final residual = 9.2081607e-08, No Iterations 3
time step continuity errors : sum local = 2.4370819e-08, global = -2.8907083e-10, cumulative = -0.00033663335
ExecutionTime = 149.28205 s  ClockTime = 151 s

Time = 1167s

smoothSolver:  Solving for Ux, Initial residual = 8.6798025e-07, Final residual = 3.2971933e-08, No Iterations 3
smoothSolver:  Solving for Uy, Initial residual = 4.4359401e-06, Final residual = 1.7273319e-07, No Iterations 3
smoothSolver:  Solving for Uz, Initial residual = 2.5246085e-07, Final residual = 9.4088247e-09, No Iterations 3
GAMG:  Solving for p, Initial residual = 1.1562432e-05, Final residual = 9.1516268e-08, No Iterations 3
time step continuity errors : sum local = 2.4221194e-08, global = -2.4254113e-10, cumulative = -0.00033663359
ExecutionTime = 149.40586 s  ClockTime = 151 s

Time = 1168s

smoothSolver:  Solving for Ux, Initial residual = 8.6142708e-07, Final residual = 3.2718796e-08, No Iterations 3
smoothSolver:  Solving for Uy, Initial residual = 4.4040616e-06, Final residual = 1.7165936e-07, No Iterations 3
smoothSolver:  Solving for Uz, Initial residual = 2.508115e-07, Final residual = 9.3402693e-09, No Iterations 3
GAMG:  Solving for p, Initial residual = 1.1464169e-05, Final residual = 9.0885915e-08, No Iterations 3
time step continuity errors : sum local = 2.4054363e-08, global = -1.8770867e-10, cumulative = -0.00033663378
ExecutionTime = 149.53097 s  ClockTime = 151 s

Time = 1169s

smoothSolver:  Solving for Ux, Initial residual = 8.5486314e-07, Final residual = 3.2461152e-08, No Iterations 3
smoothSolver:  Solving for Uy, Initial residual = 4.3720451e-06, Final residual = 1.7051702e-07, No Iterations 3
smoothSolver:  Solving for Uz, Initial residual = 2.4917259e-07, Final residual = 9.2707145e-09, No Iterations 3
GAMG:  Solving for p, Initial residual = 1.1365186e-05, Final residual = 9.0132352e-08, No Iterations 3
time step continuity errors : sum local = 2.3854921e-08, global = -1.2145736e-10, cumulative = -0.0003366339
ExecutionTime = 149.65529 s  ClockTime = 151 s

Time = 1170s

smoothSolver:  Solving for Ux, Initial residual = 8.4804301e-07, Final residual = 3.2204468e-08, No Iterations 3
smoothSolver:  Solving for Uy, Initial residual = 4.3406677e-06, Final residual = 1.6923706e-07, No Iterations 3
smoothSolver:  Solving for Uz, Initial residual = 2.475166e-07, Final residual = 9.200742e-09, No Iterations 3
GAMG:  Solving for p, Initial residual = 1.1266579e-05, Final residual = 8.9401306e-08, No Iterations 3
time step continuity errors : sum local = 2.3661439e-08, global = -4.9499498e-11, cumulative = -0.00033663395
ExecutionTime = 149.78001 s  ClockTime = 152 s

Time = 1171s

smoothSolver:  Solving for Ux, Initial residual = 8.4073e-07, Final residual = 3.1945519e-08, No Iterations 3
smoothSolver:  Solving for Uy, Initial residual = 4.3089563e-06, Final residual = 1.678479e-07, No Iterations 3
smoothSolver:  Solving for Uz, Initial residual = 2.4585284e-07, Final residual = 9.1295117e-09, No Iterations 3
GAMG:  Solving for p, Initial residual = 1.1169144e-05, Final residual = 8.840772e-08, No Iterations 3
time step continuity errors : sum local = 2.3398472e-08, global = 3.8481352e-11, cumulative = -0.00033663391
ExecutionTime = 149.90384 s  ClockTime = 152 s

Time = 1172s

smoothSolver:  Solving for Ux, Initial residual = 8.332533e-07, Final residual = 3.168221e-08, No Iterations 3
smoothSolver:  Solving for Uy, Initial residual = 4.2767967e-06, Final residual = 1.6636889e-07, No Iterations 3
smoothSolver:  Solving for Uz, Initial residual = 2.4410575e-07, Final residual = 9.0579855e-09, No Iterations 3
GAMG:  Solving for p, Initial residual = 1.1072738e-05, Final residual = 8.7328017e-08, No Iterations 3
time step continuity errors : sum local = 2.3112712e-08, global = 1.3485762e-10, cumulative = -0.00033663378
ExecutionTime = 150.02818 s  ClockTime = 152 s

Time = 1173s

smoothSolver:  Solving for Ux, Initial residual = 8.256947e-07, Final residual = 3.1415264e-08, No Iterations 3
smoothSolver:  Solving for Uy, Initial residual = 4.2429755e-06, Final residual = 1.6473955e-07, No Iterations 3
smoothSolver:  Solving for Uz, Initial residual = 2.4229581e-07, Final residual = 8.9862371e-09, No Iterations 3
GAMG:  Solving for p, Initial residual = 1.0976316e-05, Final residual = 8.6153817e-08, No Iterations 3
time step continuity errors : sum local = 2.2801943e-08, global = 2.3608356e-10, cumulative = -0.00033663354
ExecutionTime = 150.15419 s  ClockTime = 152 s

Time = 1174s

smoothSolver:  Solving for Ux, Initial residual = 8.1821151e-07, Final residual = 3.1142683e-08, No Iterations 3
smoothSolver:  Solving for Uy, Initial residual = 4.2077998e-06, Final residual = 1.6301398e-07, No Iterations 3
smoothSolver:  Solving for Uz, Initial residual = 2.4039978e-07, Final residual = 8.9128982e-09, No Iterations 3
GAMG:  Solving for p, Initial residual = 1.0877796e-05, Final residual = 8.487547e-08, No Iterations 3
time step continuity errors : sum local = 2.2463609e-08, global = 3.3566685e-10, cumulative = -0.00033663321
ExecutionTime = 150.28038 s  ClockTime = 152 s

Time = 1175s

smoothSolver:  Solving for Ux, Initial residual = 8.1067888e-07, Final residual = 3.0865653e-08, No Iterations 3
smoothSolver:  Solving for Uy, Initial residual = 4.1717623e-06, Final residual = 1.6126259e-07, No Iterations 3
smoothSolver:  Solving for Uz, Initial residual = 2.3840893e-07, Final residual = 8.8376266e-09, No Iterations 3
GAMG:  Solving for p, Initial residual = 1.0777817e-05, Final residual = 8.3737074e-08, No Iterations 3
time step continuity errors : sum local = 2.2162314e-08, global = 4.1241885e-10, cumulative = -0.0003366328
ExecutionTime = 150.40504 s  ClockTime = 152 s

Time = 1176s

smoothSolver:  Solving for Ux, Initial residual = 8.0318042e-07, Final residual = 3.0577286e-08, No Iterations 3
smoothSolver:  Solving for Uy, Initial residual = 4.1343401e-06, Final residual = 1.5950393e-07, No Iterations 3
smoothSolver:  Solving for Uz, Initial residual = 2.3635003e-07, Final residual = 8.7611986e-09, No Iterations 3
GAMG:  Solving for p, Initial residual = 1.0677164e-05, Final residual = 8.2519702e-08, No Iterations 3
time step continuity errors : sum local = 2.1840118e-08, global = 4.7764661e-10, cumulative = -0.00033663232
ExecutionTime = 150.53203 s  ClockTime = 152 s

Time = 1177s

smoothSolver:  Solving for Ux, Initial residual = 7.9545326e-07, Final residual = 3.0279797e-08, No Iterations 3
smoothSolver:  Solving for Uy, Initial residual = 4.0964443e-06, Final residual = 1.5769663e-07, No Iterations 3
smoothSolver:  Solving for Uz, Initial residual = 2.3417182e-07, Final residual = 8.6843026e-09, No Iterations 3
GAMG:  Solving for p, Initial residual = 1.0575588e-05, Final residual = 8.1327397e-08, No Iterations 3
time step continuity errors : sum local = 2.1524555e-08, global = 5.1840991e-10, cumulative = -0.0003366318
ExecutionTime = 150.65848 s  ClockTime = 153 s

Time = 1178s

smoothSolver:  Solving for Ux, Initial residual = 7.8770753e-07, Final residual = 2.9971881e-08, No Iterations 3
smoothSolver:  Solving for Uy, Initial residual = 4.0580799e-06, Final residual = 1.5592052e-07, No Iterations 3
smoothSolver:  Solving for Uz, Initial residual = 2.3194377e-07, Final residual = 8.6083315e-09, No Iterations 3
GAMG:  Solving for p, Initial residual = 1.0473994e-05, Final residual = 8.0140633e-08, No Iterations 3
time step continuity errors : sum local = 2.1210459e-08, global = 5.3550641e-10, cumulative = -0.00033663126
ExecutionTime = 150.78834 s  ClockTime = 153 s

Time = 1179s

smoothSolver:  Solving for Ux, Initial residual = 7.7965911e-07, Final residual = 2.9654204e-08, No Iterations 3
smoothSolver:  Solving for Uy, Initial residual = 4.0177181e-06, Final residual = 1.5412365e-07, No Iterations 3
smoothSolver:  Solving for Uz, Initial residual = 2.2966243e-07, Final residual = 8.5332365e-09, No Iterations 3
GAMG:  Solving for p, Initial residual = 1.0376971e-05, Final residual = 7.9049532e-08, No Iterations 3
time step continuity errors : sum local = 2.0921681e-08, global = 5.3110821e-10, cumulative = -0.00033663073
ExecutionTime = 150.91462 s  ClockTime = 153 s

Time = 1180s

smoothSolver:  Solving for Ux, Initial residual = 7.7153995e-07, Final residual = 2.9336678e-08, No Iterations 3
smoothSolver:  Solving for Uy, Initial residual = 3.977015e-06, Final residual = 1.5234349e-07, No Iterations 3
smoothSolver:  Solving for Uz, Initial residual = 2.2742943e-07, Final residual = 8.4594761e-09, No Iterations 3
GAMG:  Solving for p, Initial residual = 1.0281286e-05, Final residual = 7.7981954e-08, No Iterations 3
time step continuity errors : sum local = 2.0639129e-08, global = 5.0280562e-10, cumulative = -0.00033663023
ExecutionTime = 151.03896 s  ClockTime = 153 s

Time = 1181s

smoothSolver:  Solving for Ux, Initial residual = 7.634076e-07, Final residual = 2.9028009e-08, No Iterations 3
smoothSolver:  Solving for Uy, Initial residual = 3.9358801e-06, Final residual = 1.5058538e-07, No Iterations 3
smoothSolver:  Solving for Uz, Initial residual = 2.2519776e-07, Final residual = 8.3852344e-09, No Iterations 3
GAMG:  Solving for p, Initial residual = 1.018359e-05, Final residual = 7.6954717e-08, No Iterations 3
time step continuity errors : sum local = 2.0367255e-08, global = 4.6870301e-10, cumulative = -0.00033662976
ExecutionTime = 151.16311 s  ClockTime = 153 s

Time = 1182s

smoothSolver:  Solving for Ux, Initial residual = 7.5542651e-07, Final residual = 2.8726043e-08, No Iterations 3
smoothSolver:  Solving for Uy, Initial residual = 3.8939343e-06, Final residual = 1.4880574e-07, No Iterations 3
smoothSolver:  Solving for Uz, Initial residual = 2.2294554e-07, Final residual = 8.3082852e-09, No Iterations 3
GAMG:  Solving for p, Initial residual = 1.0087762e-05, Final residual = 7.59757e-08, No Iterations 3
time step continuity errors : sum local = 2.0108142e-08, global = 4.3158458e-10, cumulative = -0.00033662933
ExecutionTime = 151.28893 s  ClockTime = 153 s

Time = 1183s

smoothSolver:  Solving for Ux, Initial residual = 7.4738134e-07, Final residual = 2.8424484e-08, No Iterations 3
smoothSolver:  Solving for Uy, Initial residual = 3.8509683e-06, Final residual = 1.4708628e-07, No Iterations 3
smoothSolver:  Solving for Uz, Initial residual = 2.2061972e-07, Final residual = 8.2275233e-09, No Iterations 3
GAMG:  Solving for p, Initial residual = 9.9922886e-06, Final residual = 7.5076299e-08, No Iterations 3
time step continuity errors : sum local = 1.9870101e-08, global = 4.0699424e-10, cumulative = -0.00033662892
ExecutionTime = 151.41317 s  ClockTime = 153 s


SIMPLE solution converged in 1183 iterations

End

Finalising parallel run
