/*---------------------------------------------------------------------------*\
  =========                 |
  \\      /  F ield         | OpenFOAM: The Open Source CFD Toolbox
   \\    /   O peration     | Website:  https://openfoam.org
    \\  /    A nd           | Version:  11
     \\/     M anipulation  |
\*---------------------------------------------------------------------------*/
Build  : 11-e1fc8c682ae6
Exec   : foamRun -solver incompressibleFluid -parallel
Date   : Feb 09 2026
Time   : 20:41:56
Host   : "ip-172-31-18-192"
PID    : 139236
I/O    : uncollated
Case   : /home/ubuntu/cases/bifurcation_angle60_750_ascii/Re100
nProcs : 16
Slaves : 
15
(
"ip-172-31-18-192.139237"
"ip-172-31-18-192.139238"
"ip-172-31-18-192.139239"
"ip-172-31-18-192.139240"
"ip-172-31-18-192.139241"
"ip-172-31-18-192.139242"
"ip-172-31-18-192.139243"
"ip-172-31-18-192.139244"
"ip-172-31-18-192.139245"
"ip-172-31-18-192.139246"
"ip-172-31-18-192.139247"
"ip-172-31-18-192.139248"
"ip-172-31-18-192.139249"
"ip-172-31-18-192.139250"
"ip-172-31-18-192.139251"
)

Pstream initialised with:
    floatTransfer      : false
    nProcsSimpleSum    : 0
    commsType          : nonBlocking
    polling iterations : 0
sigFpe : Enabling floating point exception trapping (FOAM_SIGFPE).
fileModificationChecking : Monitoring run-time modified files using timeStampMaster (fileModificationSkew 10)
allowSystemOperations : Allowing user-supplied system call operations

// * * * * * * * * * * * * * * * * * * * * * * * * * * * * * * * * * * * * * //
Create time

Create mesh for time = 0

Selecting solver incompressibleFluid
Selecting viscosity model Newtonian
Selecting turbulence model type laminar
Selecting laminar stress model Stokes
No MRF models present


SIMPLE: Convergence criteria found
        p: tolerance 1e-05
        U: tolerance 1e-05


SIMPLE: Operating solver in steady-state mode with 1 outer corrector
SIMPLE: Operating solver in SIMPLE mode



Starting time loop

wallShearStress wallShearStress:
    processing wall patches: 
        wall-fluid_domain

Time = 1s

smoothSolver:  Solving for Ux, Initial residual = 1, Final residual = 0.045550798, No Iterations 1
smoothSolver:  Solving for Uy, Initial residual = 1, Final residual = 0.055577576, No Iterations 1
smoothSolver:  Solving for Uz, Initial residual = 1, Final residual = 0.036709279, No Iterations 1
GAMG:  Solving for p, Initial residual = 1, Final residual = 0.0090105283, No Iterations 10
time step continuity errors : sum local = 7.3743109e-05, global = -8.3905104e-07, cumulative = -8.3905104e-07
ExecutionTime = 0.670239 s  ClockTime = 1 s

Time = 2s

smoothSolver:  Solving for Ux, Initial residual = 0.25644032, Final residual = 0.017992536, No Iterations 2
smoothSolver:  Solving for Uy, Initial residual = 0.26293458, Final residual = 0.010791966, No Iterations 2
smoothSolver:  Solving for Uz, Initial residual = 0.3945929, Final residual = 0.012850412, No Iterations 3
GAMG:  Solving for p, Initial residual = 0.22354979, Final residual = 0.0012307772, No Iterations 6
time step continuity errors : sum local = 0.0016647481, global = -3.4813519e-05, cumulative = -3.565257e-05
ExecutionTime = 0.876856 s  ClockTime = 1 s

Time = 3s

smoothSolver:  Solving for Ux, Initial residual = 0.21254457, Final residual = 0.020601202, No Iterations 2
smoothSolver:  Solving for Uy, Initial residual = 0.11845272, Final residual = 0.0066284019, No Iterations 2
smoothSolver:  Solving for Uz, Initial residual = 0.61188216, Final residual = 0.021262975, No Iterations 3
GAMG:  Solving for p, Initial residual = 0.13605998, Final residual = 0.001330807, No Iterations 3
time step continuity errors : sum local = 0.0051200494, global = 0.00012778242, cumulative = 9.2129849e-05
ExecutionTime = 1.036522 s  ClockTime = 1 s

Time = 4s

smoothSolver:  Solving for Ux, Initial residual = 0.13366986, Final residual = 0.0042348029, No Iterations 3
smoothSolver:  Solving for Uy, Initial residual = 0.064299631, Final residual = 0.0036294584, No Iterations 2
smoothSolver:  Solving for Uz, Initial residual = 0.43705951, Final residual = 0.015213928, No Iterations 3
GAMG:  Solving for p, Initial residual = 0.089926389, Final residual = 0.00036623327, No Iterations 6
time step continuity errors : sum local = 0.001306121, global = 1.5784879e-05, cumulative = 0.00010791473
ExecutionTime = 1.226858 s  ClockTime = 2 s

Time = 5s

smoothSolver:  Solving for Ux, Initial residual = 0.080949438, Final residual = 0.0068974766, No Iterations 2
smoothSolver:  Solving for Uy, Initial residual = 0.2132446, Final residual = 0.013357875, No Iterations 2
smoothSolver:  Solving for Uz, Initial residual = 0.14600004, Final residual = 0.005108503, No Iterations 3
GAMG:  Solving for p, Initial residual = 0.11566074, Final residual = 0.00082072379, No Iterations 6
time step continuity errors : sum local = 0.0013086709, global = 2.9917348e-05, cumulative = 0.00013783208
ExecutionTime = 1.413839 s  ClockTime = 2 s

Time = 6s

smoothSolver:  Solving for Ux, Initial residual = 0.10811969, Final residual = 0.0083535608, No Iterations 2
smoothSolver:  Solving for Uy, Initial residual = 0.39617152, Final residual = 0.024081525, No Iterations 2
smoothSolver:  Solving for Uz, Initial residual = 0.113919, Final residual = 0.0038957126, No Iterations 3
GAMG:  Solving for p, Initial residual = 0.37604102, Final residual = 0.0031125489, No Iterations 4
time step continuity errors : sum local = 0.0038425427, global = 6.4364933e-05, cumulative = 0.00020219701
ExecutionTime = 1.584585 s  ClockTime = 2 s

Time = 7s

smoothSolver:  Solving for Ux, Initial residual = 0.13632886, Final residual = 0.012193853, No Iterations 2
smoothSolver:  Solving for Uy, Initial residual = 0.22632234, Final residual = 0.013097751, No Iterations 2
smoothSolver:  Solving for Uz, Initial residual = 0.27056546, Final residual = 0.0093475328, No Iterations 3
GAMG:  Solving for p, Initial residual = 0.24447696, Final residual = 0.0011842734, No Iterations 4
time step continuity errors : sum local = 0.0023543864, global = -5.9739668e-06, cumulative = 0.00019622304
ExecutionTime = 1.753009 s  ClockTime = 2 s

Time = 8s

smoothSolver:  Solving for Ux, Initial residual = 0.1069189, Final residual = 0.010313444, No Iterations 2
smoothSolver:  Solving for Uy, Initial residual = 0.12704934, Final residual = 0.0084769525, No Iterations 2
smoothSolver:  Solving for Uz, Initial residual = 0.25530604, Final residual = 0.0088241799, No Iterations 3
GAMG:  Solving for p, Initial residual = 0.19111902, Final residual = 0.0011051582, No Iterations 5
time step continuity errors : sum local = 0.0017067157, global = -9.9392321e-06, cumulative = 0.00018628381
ExecutionTime = 1.932575 s  ClockTime = 2 s

Time = 9s

smoothSolver:  Solving for Ux, Initial residual = 0.072344352, Final residual = 0.0058782162, No Iterations 2
smoothSolver:  Solving for Uy, Initial residual = 0.28434792, Final residual = 0.020991852, No Iterations 2
smoothSolver:  Solving for Uz, Initial residual = 0.071605366, Final residual = 0.002350991, No Iterations 3
GAMG:  Solving for p, Initial residual = 0.24074157, Final residual = 0.0011555653, No Iterations 6
time step continuity errors : sum local = 0.00058046127, global = -8.1117515e-06, cumulative = 0.00017817206
ExecutionTime = 2.120798 s  ClockTime = 2 s

Time = 10s

smoothSolver:  Solving for Ux, Initial residual = 0.083479973, Final residual = 0.0069362601, No Iterations 2
smoothSolver:  Solving for Uy, Initial residual = 0.37616849, Final residual = 0.025104606, No Iterations 2
smoothSolver:  Solving for Uz, Initial residual = 0.10213944, Final residual = 0.0035629409, No Iterations 3
GAMG:  Solving for p, Initial residual = 0.26878349, Final residual = 0.0020429399, No Iterations 4
time step continuity errors : sum local = 0.0014879478, global = -1.4914787e-05, cumulative = 0.00016325727
ExecutionTime = 2.29061 s  ClockTime = 3 s

Time = 11s

smoothSolver:  Solving for Ux, Initial residual = 0.072290412, Final residual = 0.0065992427, No Iterations 2
smoothSolver:  Solving for Uy, Initial residual = 0.2041288, Final residual = 0.012373222, No Iterations 2
smoothSolver:  Solving for Uz, Initial residual = 0.13752025, Final residual = 0.0047948878, No Iterations 3
GAMG:  Solving for p, Initial residual = 0.20225707, Final residual = 0.0015001141, No Iterations 4
time step continuity errors : sum local = 0.0014472239, global = 8.8316219e-06, cumulative = 0.00017208889
ExecutionTime = 2.461989 s  ClockTime = 3 s

Time = 12s

smoothSolver:  Solving for Ux, Initial residual = 0.045187477, Final residual = 0.004471714, No Iterations 2
smoothSolver:  Solving for Uy, Initial residual = 0.14844618, Final residual = 0.011698556, No Iterations 2
smoothSolver:  Solving for Uz, Initial residual = 0.086183449, Final residual = 0.0030142138, No Iterations 3
GAMG:  Solving for p, Initial residual = 0.15527693, Final residual = 0.0012215525, No Iterations 5
time step continuity errors : sum local = 0.00082878828, global = 2.5833889e-06, cumulative = 0.00017467228
ExecutionTime = 2.64063 s  ClockTime = 3 s

Time = 13s

smoothSolver:  Solving for Ux, Initial residual = 0.03279404, Final residual = 0.0026991167, No Iterations 2
smoothSolver:  Solving for Uy, Initial residual = 0.31976935, Final residual = 0.025428407, No Iterations 2
smoothSolver:  Solving for Uz, Initial residual = 0.017058539, Final residual = 0.0015692438, No Iterations 2
GAMG:  Solving for p, Initial residual = 0.33006979, Final residual = 0.0031584841, No Iterations 5
time step continuity errors : sum local = 0.00061091302, global = 9.502704e-07, cumulative = 0.00017562255
ExecutionTime = 2.816732 s  ClockTime = 3 s

Time = 14s

smoothSolver:  Solving for Ux, Initial residual = 0.037714511, Final residual = 0.0032249922, No Iterations 2
smoothSolver:  Solving for Uy, Initial residual = 0.30227626, Final residual = 0.02176885, No Iterations 2
smoothSolver:  Solving for Uz, Initial residual = 0.048553868, Final residual = 0.0016565111, No Iterations 3
GAMG:  Solving for p, Initial residual = 0.27260216, Final residual = 0.0016037862, No Iterations 4
time step continuity errors : sum local = 0.00059704344, global = 4.5993033e-06, cumulative = 0.00018022186
ExecutionTime = 2.986482 s  ClockTime = 3 s

Time = 15s

smoothSolver:  Solving for Ux, Initial residual = 0.033163422, Final residual = 0.0030458074, No Iterations 2
smoothSolver:  Solving for Uy, Initial residual = 0.1586074, Final residual = 0.010417258, No Iterations 2
smoothSolver:  Solving for Uz, Initial residual = 0.060661766, Final residual = 0.0020780112, No Iterations 3
GAMG:  Solving for p, Initial residual = 0.21015278, Final residual = 0.0018706405, No Iterations 4
time step continuity errors : sum local = 0.00078590675, global = -6.6761072e-06, cumulative = 0.00017354575
ExecutionTime = 3.157577 s  ClockTime = 3 s

Time = 16s

smoothSolver:  Solving for Ux, Initial residual = 0.022633445, Final residual = 0.0022011397, No Iterations 2
smoothSolver:  Solving for Uy, Initial residual = 0.14837529, Final residual = 0.012552986, No Iterations 2
smoothSolver:  Solving for Uz, Initial residual = 0.03467633, Final residual = 0.0011778116, No Iterations 3
GAMG:  Solving for p, Initial residual = 0.17064827, Final residual = 0.001521364, No Iterations 5
time step continuity errors : sum local = 0.00038438835, global = -9.6794163e-07, cumulative = 0.00017257781
ExecutionTime = 3.340084 s  ClockTime = 4 s

Time = 17s

smoothSolver:  Solving for Ux, Initial residual = 0.018509964, Final residual = 0.0015290333, No Iterations 2
smoothSolver:  Solving for Uy, Initial residual = 0.25415222, Final residual = 0.020596451, No Iterations 2
smoothSolver:  Solving for Uz, Initial residual = 0.0096860908, Final residual = 0.00093063714, No Iterations 2
GAMG:  Solving for p, Initial residual = 0.3084986, Final residual = 0.0022300249, No Iterations 5
time step continuity errors : sum local = 0.00024880715, global = -6.0616385e-07, cumulative = 0.00017197164
ExecutionTime = 3.517071 s  ClockTime = 4 s

Time = 18s

smoothSolver:  Solving for Ux, Initial residual = 0.019647249, Final residual = 0.0017632329, No Iterations 2
smoothSolver:  Solving for Uy, Initial residual = 0.20119242, Final residual = 0.014828084, No Iterations 2
smoothSolver:  Solving for Uz, Initial residual = 0.02758076, Final residual = 0.00097500668, No Iterations 3
GAMG:  Solving for p, Initial residual = 0.1978646, Final residual = 0.0011001525, No Iterations 4
time step continuity errors : sum local = 0.00026760766, global = 1.7307077e-06, cumulative = 0.00017370235
ExecutionTime = 3.686377 s  ClockTime = 4 s

Time = 19s

smoothSolver:  Solving for Ux, Initial residual = 0.015162666, Final residual = 0.001464017, No Iterations 2
smoothSolver:  Solving for Uy, Initial residual = 0.10922774, Final residual = 0.0079318601, No Iterations 2
smoothSolver:  Solving for Uz, Initial residual = 0.027207486, Final residual = 0.00096194615, No Iterations 3
GAMG:  Solving for p, Initial residual = 0.15398657, Final residual = 0.0006974844, No Iterations 5
time step continuity errors : sum local = 0.00016862468, global = 7.6879747e-07, cumulative = 0.00017447115
ExecutionTime = 3.864645 s  ClockTime = 4 s

Time = 20s

smoothSolver:  Solving for Ux, Initial residual = 0.0110242, Final residual = 0.0010921471, No Iterations 2
smoothSolver:  Solving for Uy, Initial residual = 0.12387815, Final residual = 0.01102043, No Iterations 2
smoothSolver:  Solving for Uz, Initial residual = 0.01295513, Final residual = 0.00045454878, No Iterations 3
GAMG:  Solving for p, Initial residual = 0.10975956, Final residual = 0.00044403507, No Iterations 6
time step continuity errors : sum local = 6.8135824e-05, global = 1.0573135e-06, cumulative = 0.00017552846
ExecutionTime = 4.051861 s  ClockTime = 4 s

Time = 21s

smoothSolver:  Solving for Ux, Initial residual = 0.0096858451, Final residual = 0.00083615037, No Iterations 2
smoothSolver:  Solving for Uy, Initial residual = 0.16213269, Final residual = 0.01356546, No Iterations 2
smoothSolver:  Solving for Uz, Initial residual = 0.0060429943, Final residual = 0.00056516635, No Iterations 2
GAMG:  Solving for p, Initial residual = 0.28764949, Final residual = 0.0015030127, No Iterations 5
time step continuity errors : sum local = 9.8597867e-05, global = 2.3815105e-07, cumulative = 0.00017576661
ExecutionTime = 4.231225 s  ClockTime = 5 s

Time = 22s

smoothSolver:  Solving for Ux, Initial residual = 0.0087389353, Final residual = 0.00076365588, No Iterations 2
smoothSolver:  Solving for Uy, Initial residual = 0.1178418, Final residual = 0.0090703371, No Iterations 2
smoothSolver:  Solving for Uz, Initial residual = 0.012369816, Final residual = 0.00041058148, No Iterations 3
GAMG:  Solving for p, Initial residual = 0.20391405, Final residual = 0.0014315829, No Iterations 4
time step continuity errors : sum local = 0.0001617309, global = -1.6582791e-06, cumulative = 0.00017410833
ExecutionTime = 4.402138 s  ClockTime = 5 s

Time = 23s

smoothSolver:  Solving for Ux, Initial residual = 0.0063808744, Final residual = 0.00059405194, No Iterations 2
smoothSolver:  Solving for Uy, Initial residual = 0.066496574, Final residual = 0.0052672597, No Iterations 2
smoothSolver:  Solving for Uz, Initial residual = 0.010693622, Final residual = 0.00035360144, No Iterations 3
GAMG:  Solving for p, Initial residual = 0.15916242, Final residual = 0.00083555818, No Iterations 5
time step continuity errors : sum local = 8.4802527e-05, global = -2.7137661e-07, cumulative = 0.00017383696
ExecutionTime = 4.583332 s  ClockTime = 5 s

Time = 24s

smoothSolver:  Solving for Ux, Initial residual = 0.005266888, Final residual = 0.00049054892, No Iterations 2
smoothSolver:  Solving for Uy, Initial residual = 0.081689701, Final residual = 0.0073340662, No Iterations 2
smoothSolver:  Solving for Uz, Initial residual = 0.0045103511, Final residual = 0.00044333859, No Iterations 2
GAMG:  Solving for p, Initial residual = 0.13779926, Final residual = 0.0013410068, No Iterations 5
time step continuity errors : sum local = 7.4703626e-05, global = -8.2172281e-08, cumulative = 0.00017375479
ExecutionTime = 4.765802 s  ClockTime = 5 s

Time = 25s

smoothSolver:  Solving for Ux, Initial residual = 0.0054167152, Final residual = 0.00050277587, No Iterations 2
smoothSolver:  Solving for Uy, Initial residual = 0.088659918, Final residual = 0.0075552862, No Iterations 2
smoothSolver:  Solving for Uz, Initial residual = 0.0058420405, Final residual = 0.00019878581, No Iterations 3
GAMG:  Solving for p, Initial residual = 0.10556657, Final residual = 0.0010273819, No Iterations 4
time step continuity errors : sum local = 9.4308207e-05, global = -7.2625104e-07, cumulative = 0.00017302853
ExecutionTime = 4.938491 s  ClockTime = 5 s

Time = 26s

smoothSolver:  Solving for Ux, Initial residual = 0.0048506219, Final residual = 0.0004678335, No Iterations 2
smoothSolver:  Solving for Uy, Initial residual = 0.06106226, Final residual = 0.0050445839, No Iterations 2
smoothSolver:  Solving for Uz, Initial residual = 0.007236893, Final residual = 0.00025601171, No Iterations 3
GAMG:  Solving for p, Initial residual = 0.094120905, Final residual = 0.00078738141, No Iterations 4
time step continuity errors : sum local = 8.5439884e-05, global = 4.8904601e-07, cumulative = 0.00017351758
ExecutionTime = 5.10942 s  ClockTime = 5 s

Time = 27s

smoothSolver:  Solving for Ux, Initial residual = 0.0039731252, Final residual = 0.00012730703, No Iterations 3
smoothSolver:  Solving for Uy, Initial residual = 0.042322469, Final residual = 0.0038922375, No Iterations 2
smoothSolver:  Solving for Uz, Initial residual = 0.0061101624, Final residual = 0.00021291997, No Iterations 3
GAMG:  Solving for p, Initial residual = 0.064699237, Final residual = 0.00041220086, No Iterations 5
time step continuity errors : sum local = 4.1222908e-05, global = 1.0316934e-07, cumulative = 0.00017362075
ExecutionTime = 5.291323 s  ClockTime = 6 s

Time = 28s

smoothSolver:  Solving for Ux, Initial residual = 0.0037622635, Final residual = 0.00011667341, No Iterations 3
smoothSolver:  Solving for Uy, Initial residual = 0.05058527, Final residual = 0.0047431085, No Iterations 2
smoothSolver:  Solving for Uz, Initial residual = 0.0042942376, Final residual = 0.00014086531, No Iterations 3
GAMG:  Solving for p, Initial residual = 0.050212327, Final residual = 0.00041817867, No Iterations 5
time step continuity errors : sum local = 3.272182e-05, global = 4.3270974e-08, cumulative = 0.00017366402
ExecutionTime = 5.472554 s  ClockTime = 6 s

Time = 29s

smoothSolver:  Solving for Ux, Initial residual = 0.0033611764, Final residual = 0.00032168866, No Iterations 2
smoothSolver:  Solving for Uy, Initial residual = 0.04914718, Final residual = 0.0044151369, No Iterations 2
smoothSolver:  Solving for Uz, Initial residual = 0.0034414412, Final residual = 0.00010642085, No Iterations 3
GAMG:  Solving for p, Initial residual = 0.088476666, Final residual = 0.00069028886, No Iterations 4
time step continuity errors : sum local = 4.1802886e-05, global = 2.4513197e-07, cumulative = 0.00017390915
ExecutionTime = 5.642483 s  ClockTime = 6 s

Time = 30s

smoothSolver:  Solving for Ux, Initial residual = 0.0027282176, Final residual = 0.0002621777, No Iterations 2
smoothSolver:  Solving for Uy, Initial residual = 0.034985843, Final residual = 0.0031625453, No Iterations 2
smoothSolver:  Solving for Uz, Initial residual = 0.0033312273, Final residual = 0.00010268388, No Iterations 3
GAMG:  Solving for p, Initial residual = 0.091763471, Final residual = 0.00074175692, No Iterations 4
time step continuity errors : sum local = 4.1093446e-05, global = -2.6909768e-07, cumulative = 0.00017364006
ExecutionTime = 5.8151 s  ClockTime = 6 s

Time = 31s

smoothSolver:  Solving for Ux, Initial residual = 0.0024549954, Final residual = 7.5699474e-05, No Iterations 3
smoothSolver:  Solving for Uy, Initial residual = 0.029241334, Final residual = 0.0028481824, No Iterations 2
smoothSolver:  Solving for Uz, Initial residual = 0.0032241935, Final residual = 0.00010160016, No Iterations 3
GAMG:  Solving for p, Initial residual = 0.05366204, Final residual = 0.000305614, No Iterations 5
time step continuity errors : sum local = 1.8491644e-05, global = -2.1599484e-08, cumulative = 0.00017361846
ExecutionTime = 5.997016 s  ClockTime = 6 s

Time = 32s

smoothSolver:  Solving for Ux, Initial residual = 0.002569444, Final residual = 8.0573234e-05, No Iterations 3
smoothSolver:  Solving for Uy, Initial residual = 0.032569145, Final residual = 0.0031532535, No Iterations 2
smoothSolver:  Solving for Uz, Initial residual = 0.0034658403, Final residual = 0.00011342529, No Iterations 3
GAMG:  Solving for p, Initial residual = 0.03411675, Final residual = 0.00018357546, No Iterations 5
time step continuity errors : sum local = 1.2912711e-05, global = -3.2280986e-09, cumulative = 0.00017361523
ExecutionTime = 6.180432 s  ClockTime = 7 s

Time = 33s

smoothSolver:  Solving for Ux, Initial residual = 0.0025349569, Final residual = 8.062483e-05, No Iterations 3
smoothSolver:  Solving for Uy, Initial residual = 0.030304114, Final residual = 0.0029092439, No Iterations 2
smoothSolver:  Solving for Uz, Initial residual = 0.0037417791, Final residual = 0.00012575187, No Iterations 3
GAMG:  Solving for p, Initial residual = 0.035651295, Final residual = 0.00021967058, No Iterations 4
time step continuity errors : sum local = 1.7041473e-05, global = -4.6468267e-08, cumulative = 0.00017356876
ExecutionTime = 6.352158 s  ClockTime = 7 s

Time = 34s

smoothSolver:  Solving for Ux, Initial residual = 0.0023364226, Final residual = 7.6376746e-05, No Iterations 3
smoothSolver:  Solving for Uy, Initial residual = 0.024735152, Final residual = 0.0024609365, No Iterations 2
smoothSolver:  Solving for Uz, Initial residual = 0.0037006706, Final residual = 0.00012491201, No Iterations 3
GAMG:  Solving for p, Initial residual = 0.030754341, Final residual = 0.00027137621, No Iterations 4
time step continuity errors : sum local = 2.1368788e-05, global = 1.6679653e-07, cumulative = 0.00017373556
ExecutionTime = 6.522159 s  ClockTime = 7 s

Time = 35s

smoothSolver:  Solving for Ux, Initial residual = 0.0022181387, Final residual = 7.3033058e-05, No Iterations 3
smoothSolver:  Solving for Uy, Initial residual = 0.023251643, Final residual = 0.00074048961, No Iterations 3
smoothSolver:  Solving for Uz, Initial residual = 0.0034169997, Final residual = 0.00011416716, No Iterations 3
GAMG:  Solving for p, Initial residual = 0.023452358, Final residual = 0.00012055767, No Iterations 5
time step continuity errors : sum local = 9.0936652e-06, global = 2.7099667e-08, cumulative = 0.00017376266
ExecutionTime = 6.705908 s  ClockTime = 7 s

Time = 36s

smoothSolver:  Solving for Ux, Initial residual = 0.0021456775, Final residual = 6.9579915e-05, No Iterations 3
smoothSolver:  Solving for Uy, Initial residual = 0.023490043, Final residual = 0.00073784943, No Iterations 3
smoothSolver:  Solving for Uz, Initial residual = 0.0031123317, Final residual = 0.00010242037, No Iterations 3
GAMG:  Solving for p, Initial residual = 0.024905031, Final residual = 0.00020940438, No Iterations 4
time step continuity errors : sum local = 1.482824e-05, global = 1.2378877e-07, cumulative = 0.00017388644
ExecutionTime = 6.880567 s  ClockTime = 7 s

Time = 37s

smoothSolver:  Solving for Ux, Initial residual = 0.0020242271, Final residual = 6.5353689e-05, No Iterations 3
smoothSolver:  Solving for Uy, Initial residual = 0.02167021, Final residual = 0.00068249529, No Iterations 3
smoothSolver:  Solving for Uz, Initial residual = 0.002939135, Final residual = 9.6014248e-05, No Iterations 3
GAMG:  Solving for p, Initial residual = 0.027858035, Final residual = 0.00013618651, No Iterations 4
time step continuity errors : sum local = 9.270793e-06, global = 1.6591125e-08, cumulative = 0.00017390304
ExecutionTime = 7.052287 s  ClockTime = 7 s

Time = 38s

smoothSolver:  Solving for Ux, Initial residual = 0.0019211485, Final residual = 6.2675811e-05, No Iterations 3
smoothSolver:  Solving for Uy, Initial residual = 0.019679693, Final residual = 0.00063544322, No Iterations 3
smoothSolver:  Solving for Uz, Initial residual = 0.0028703782, Final residual = 9.4039054e-05, No Iterations 3
GAMG:  Solving for p, Initial residual = 0.024797718, Final residual = 0.00014498019, No Iterations 4
time step continuity errors : sum local = 9.8678165e-06, global = -9.0693978e-08, cumulative = 0.00017381234
ExecutionTime = 7.226754 s  ClockTime = 8 s

Time = 39s

smoothSolver:  Solving for Ux, Initial residual = 0.0018868684, Final residual = 6.2073391e-05, No Iterations 3
smoothSolver:  Solving for Uy, Initial residual = 0.019340174, Final residual = 0.00063028403, No Iterations 3
smoothSolver:  Solving for Uz, Initial residual = 0.002857621, Final residual = 9.4448198e-05, No Iterations 3
GAMG:  Solving for p, Initial residual = 0.020259617, Final residual = 0.00012791895, No Iterations 4
time step continuity errors : sum local = 8.9292549e-06, global = -1.1432327e-07, cumulative = 0.00017369802
ExecutionTime = 7.400435 s  ClockTime = 8 s

Time = 40s

smoothSolver:  Solving for Ux, Initial residual = 0.0018633593, Final residual = 6.1619322e-05, No Iterations 3
smoothSolver:  Solving for Uy, Initial residual = 0.019171334, Final residual = 0.00062385613, No Iterations 3
smoothSolver:  Solving for Uz, Initial residual = 0.0028613542, Final residual = 9.5474569e-05, No Iterations 3
GAMG:  Solving for p, Initial residual = 0.018640939, Final residual = 8.3792599e-05, No Iterations 4
time step continuity errors : sum local = 6.0188798e-06, global = -4.7590524e-08, cumulative = 0.00017365043
ExecutionTime = 7.845233 s  ClockTime = 8 s

Time = 41s

smoothSolver:  Solving for Ux, Initial residual = 0.0018152234, Final residual = 6.0411802e-05, No Iterations 3
smoothSolver:  Solving for Uy, Initial residual = 0.018319405, Final residual = 0.00060067378, No Iterations 3
smoothSolver:  Solving for Uz, Initial residual = 0.0028359674, Final residual = 9.5149484e-05, No Iterations 3
GAMG:  Solving for p, Initial residual = 0.018035767, Final residual = 7.8876181e-05, No Iterations 4
time step continuity errors : sum local = 5.7514674e-06, global = 6.4442319e-08, cumulative = 0.00017371487
ExecutionTime = 8.024121 s  ClockTime = 8 s

Time = 42s

smoothSolver:  Solving for Ux, Initial residual = 0.0017628538, Final residual = 5.8943617e-05, No Iterations 3
smoothSolver:  Solving for Uy, Initial residual = 0.01749876, Final residual = 0.00057947623, No Iterations 3
smoothSolver:  Solving for Uz, Initial residual = 0.0027683048, Final residual = 9.2945283e-05, No Iterations 3
GAMG:  Solving for p, Initial residual = 0.016963925, Final residual = 9.0010829e-05, No Iterations 4
time step continuity errors : sum local = 6.5555629e-06, global = 3.2303871e-08, cumulative = 0.00017374717
ExecutionTime = 8.198663 s  ClockTime = 9 s

Time = 43s

smoothSolver:  Solving for Ux, Initial residual = 0.0017201837, Final residual = 5.7520692e-05, No Iterations 3
smoothSolver:  Solving for Uy, Initial residual = 0.017034857, Final residual = 0.00056559677, No Iterations 3
smoothSolver:  Solving for Uz, Initial residual = 0.0026774309, Final residual = 8.9694278e-05, No Iterations 3
GAMG:  Solving for p, Initial residual = 0.016470947, Final residual = 8.4530967e-05, No Iterations 4
time step continuity errors : sum local = 6.0844854e-06, global = 2.855174e-08, cumulative = 0.00017377573
ExecutionTime = 8.372418 s  ClockTime = 9 s

Time = 44s

smoothSolver:  Solving for Ux, Initial residual = 0.0016802331, Final residual = 5.6117079e-05, No Iterations 3
smoothSolver:  Solving for Uy, Initial residual = 0.016586041, Final residual = 0.00055067627, No Iterations 3
smoothSolver:  Solving for Uz, Initial residual = 0.0025938296, Final residual = 8.6722483e-05, No Iterations 3
GAMG:  Solving for p, Initial residual = 0.016704406, Final residual = 0.00015478065, No Iterations 3
time step continuity errors : sum local = 1.1008962e-05, global = 1.0901226e-07, cumulative = 0.00017388474
ExecutionTime = 8.538336 s  ClockTime = 9 s

Time = 45s

smoothSolver:  Solving for Ux, Initial residual = 0.0016412484, Final residual = 5.4875157e-05, No Iterations 3
smoothSolver:  Solving for Uy, Initial residual = 0.016050599, Final residual = 0.00053452464, No Iterations 3
smoothSolver:  Solving for Uz, Initial residual = 0.0025317433, Final residual = 8.4672895e-05, No Iterations 3
GAMG:  Solving for p, Initial residual = 0.016470394, Final residual = 9.2362085e-05, No Iterations 3
time step continuity errors : sum local = 6.5406401e-06, global = 3.0837152e-08, cumulative = 0.00017391558
ExecutionTime = 8.702199 s  ClockTime = 9 s

Time = 46s

smoothSolver:  Solving for Ux, Initial residual = 0.0016092529, Final residual = 5.3928949e-05, No Iterations 3
smoothSolver:  Solving for Uy, Initial residual = 0.01563195, Final residual = 0.00052205571, No Iterations 3
smoothSolver:  Solving for Uz, Initial residual = 0.0024857684, Final residual = 8.3317779e-05, No Iterations 3
GAMG:  Solving for p, Initial residual = 0.015717199, Final residual = 0.0001018477, No Iterations 3
time step continuity errors : sum local = 7.2316025e-06, global = -5.1841283e-08, cumulative = 0.00017386373
ExecutionTime = 8.866973 s  ClockTime = 9 s

Time = 47s

smoothSolver:  Solving for Ux, Initial residual = 0.001581073, Final residual = 5.3099704e-05, No Iterations 3
smoothSolver:  Solving for Uy, Initial residual = 0.015304043, Final residual = 0.00051176501, No Iterations 3
smoothSolver:  Solving for Uz, Initial residual = 0.0024469841, Final residual = 8.2252077e-05, No Iterations 3
GAMG:  Solving for p, Initial residual = 0.015016024, Final residual = 9.6047109e-05, No Iterations 3
time step continuity errors : sum local = 6.8567989e-06, global = -3.3911626e-08, cumulative = 0.00017382982
ExecutionTime = 9.030073 s  ClockTime = 9 s

Time = 48s

smoothSolver:  Solving for Ux, Initial residual = 0.0015526265, Final residual = 5.2261496e-05, No Iterations 3
smoothSolver:  Solving for Uy, Initial residual = 0.014947224, Final residual = 0.00050056324, No Iterations 3
smoothSolver:  Solving for Uz, Initial residual = 0.0024101717, Final residual = 8.1240138e-05, No Iterations 3
GAMG:  Solving for p, Initial residual = 0.014507546, Final residual = 6.4664107e-05, No Iterations 3
time step continuity errors : sum local = 4.642146e-06, global = 5.7773867e-08, cumulative = 0.0001738876
ExecutionTime = 9.194 s  ClockTime = 10 s

Time = 49s

smoothSolver:  Solving for Ux, Initial residual = 0.0015237236, Final residual = 5.1394931e-05, No Iterations 3
smoothSolver:  Solving for Uy, Initial residual = 0.014558297, Final residual = 0.00048849533, No Iterations 3
smoothSolver:  Solving for Uz, Initial residual = 0.0023703585, Final residual = 8.0055123e-05, No Iterations 3
GAMG:  Solving for p, Initial residual = 0.014118492, Final residual = 0.00010213742, No Iterations 3
time step continuity errors : sum local = 7.355887e-06, global = 1.0389746e-07, cumulative = 0.00017399149
ExecutionTime = 9.358571 s  ClockTime = 10 s

Time = 50s

smoothSolver:  Solving for Ux, Initial residual = 0.0014961207, Final residual = 5.0537851e-05, No Iterations 3
smoothSolver:  Solving for Uy, Initial residual = 0.014193099, Final residual = 0.0004770375, No Iterations 3
smoothSolver:  Solving for Uz, Initial residual = 0.0023277058, Final residual = 7.8706771e-05, No Iterations 3
GAMG:  Solving for p, Initial residual = 0.013795527, Final residual = 0.00011270303, No Iterations 3
time step continuity errors : sum local = 8.1226975e-06, global = 1.0793591e-07, cumulative = 0.00017409943
ExecutionTime = 9.522855 s  ClockTime = 10 s

Time = 51s

smoothSolver:  Solving for Ux, Initial residual = 0.0014703812, Final residual = 4.9706071e-05, No Iterations 3
smoothSolver:  Solving for Uy, Initial residual = 0.013861282, Final residual = 0.0004664211, No Iterations 3
smoothSolver:  Solving for Uz, Initial residual = 0.002282528, Final residual = 7.7212449e-05, No Iterations 3
GAMG:  Solving for p, Initial residual = 0.013574301, Final residual = 0.00011063154, No Iterations 3
time step continuity errors : sum local = 7.9602498e-06, global = 9.8259704e-08, cumulative = 0.00017419769
ExecutionTime = 9.687105 s  ClockTime = 10 s

Time = 52s

smoothSolver:  Solving for Ux, Initial residual = 0.001446227, Final residual = 4.8917129e-05, No Iterations 3
smoothSolver:  Solving for Uy, Initial residual = 0.013549636, Final residual = 0.0004563665, No Iterations 3
smoothSolver:  Solving for Uz, Initial residual = 0.0022384079, Final residual = 7.5749295e-05, No Iterations 3
GAMG:  Solving for p, Initial residual = 0.013401031, Final residual = 9.8915022e-05, No Iterations 3
time step continuity errors : sum local = 7.1032127e-06, global = 7.560817e-08, cumulative = 0.0001742733
ExecutionTime = 9.851396 s  ClockTime = 10 s

Time = 53s

smoothSolver:  Solving for Ux, Initial residual = 0.0014233173, Final residual = 4.8184308e-05, No Iterations 3
smoothSolver:  Solving for Uy, Initial residual = 0.013251483, Final residual = 0.00044677035, No Iterations 3
smoothSolver:  Solving for Uz, Initial residual = 0.0021978785, Final residual = 7.4435356e-05, No Iterations 3
GAMG:  Solving for p, Initial residual = 0.013178684, Final residual = 8.4493856e-05, No Iterations 3
time step continuity errors : sum local = 6.0633035e-06, global = 4.786892e-08, cumulative = 0.00017432117
ExecutionTime = 10.014049 s  ClockTime = 10 s

Time = 54s

smoothSolver:  Solving for Ux, Initial residual = 0.0014015023, Final residual = 4.7502808e-05, No Iterations 3
smoothSolver:  Solving for Uy, Initial residual = 0.012966738, Final residual = 0.00043772193, No Iterations 3
smoothSolver:  Solving for Uz, Initial residual = 0.0021612866, Final residual = 7.3287505e-05, No Iterations 3
GAMG:  Solving for p, Initial residual = 0.0128884, Final residual = 0.00012039038, No Iterations 2
time step continuity errors : sum local = 8.6472808e-06, global = 1.1471813e-07, cumulative = 0.00017443588
ExecutionTime = 10.16835 s  ClockTime = 11 s

Time = 55s

smoothSolver:  Solving for Ux, Initial residual = 0.001380166, Final residual = 4.6846014e-05, No Iterations 3
smoothSolver:  Solving for Uy, Initial residual = 0.012688159, Final residual = 0.00042893103, No Iterations 3
smoothSolver:  Solving for Uz, Initial residual = 0.0021278731, Final residual = 7.2271336e-05, No Iterations 3
GAMG:  Solving for p, Initial residual = 0.012564321, Final residual = 7.6406661e-05, No Iterations 3
time step continuity errors : sum local = 5.5007127e-06, global = 7.2209595e-08, cumulative = 0.00017450809
ExecutionTime = 10.331959 s  ClockTime = 11 s

Time = 56s

smoothSolver:  Solving for Ux, Initial residual = 0.0013602136, Final residual = 4.6224876e-05, No Iterations 3
smoothSolver:  Solving for Uy, Initial residual = 0.012413187, Final residual = 0.00042018799, No Iterations 3
smoothSolver:  Solving for Uz, Initial residual = 0.0020949997, Final residual = 7.1248469e-05, No Iterations 3
GAMG:  Solving for p, Initial residual = 0.012309905, Final residual = 8.8530202e-05, No Iterations 3
time step continuity errors : sum local = 6.3842162e-06, global = 8.172872e-08, cumulative = 0.00017458982
ExecutionTime = 10.495021 s  ClockTime = 11 s

Time = 57s

smoothSolver:  Solving for Ux, Initial residual = 0.0013408027, Final residual = 4.5613387e-05, No Iterations 3
smoothSolver:  Solving for Uy, Initial residual = 0.012143859, Final residual = 0.00041161315, No Iterations 3
smoothSolver:  Solving for Uz, Initial residual = 0.0020625032, Final residual = 7.0220756e-05, No Iterations 3
GAMG:  Solving for p, Initial residual = 0.012086684, Final residual = 9.0000484e-05, No Iterations 3
time step continuity errors : sum local = 6.4973693e-06, global = 7.9847312e-08, cumulative = 0.00017466967
ExecutionTime = 10.658757 s  ClockTime = 11 s

Time = 58s

smoothSolver:  Solving for Ux, Initial residual = 0.0013220545, Final residual = 4.5014455e-05, No Iterations 3
smoothSolver:  Solving for Uy, Initial residual = 0.011885722, Final residual = 0.00040334154, No Iterations 3
smoothSolver:  Solving for Uz, Initial residual = 0.0020302453, Final residual = 6.918384e-05, No Iterations 3
GAMG:  Solving for p, Initial residual = 0.011885868, Final residual = 8.4967353e-05, No Iterations 3
time step continuity errors : sum local = 6.1370333e-06, global = 7.4282678e-08, cumulative = 0.00017474395
ExecutionTime = 10.824659 s  ClockTime = 11 s

Time = 59s

smoothSolver:  Solving for Ux, Initial residual = 0.0013041482, Final residual = 4.4439262e-05, No Iterations 3
smoothSolver:  Solving for Uy, Initial residual = 0.011639369, Final residual = 0.0003954112, No Iterations 3
smoothSolver:  Solving for Uz, Initial residual = 0.0019985459, Final residual = 6.8157519e-05, No Iterations 3
GAMG:  Solving for p, Initial residual = 0.011694216, Final residual = 7.9682677e-05, No Iterations 3
time step continuity errors : sum local = 5.7566549e-06, global = 6.4120907e-08, cumulative = 0.00017480807
ExecutionTime = 10.989262 s  ClockTime = 11 s

Time = 60s

smoothSolver:  Solving for Ux, Initial residual = 0.0012870489, Final residual = 4.3892979e-05, No Iterations 3
smoothSolver:  Solving for Uy, Initial residual = 0.011403371, Final residual = 0.000387742, No Iterations 3
smoothSolver:  Solving for Uz, Initial residual = 0.0019678602, Final residual = 6.7165896e-05, No Iterations 3
GAMG:  Solving for p, Initial residual = 0.011500266, Final residual = 7.5686799e-05, No Iterations 3
time step continuity errors : sum local = 5.4699847e-06, global = 5.3958954e-08, cumulative = 0.00017486203
ExecutionTime = 11.157113 s  ClockTime = 12 s

Time = 61s

smoothSolver:  Solving for Ux, Initial residual = 0.0012706824, Final residual = 4.3375485e-05, No Iterations 3
smoothSolver:  Solving for Uy, Initial residual = 0.011175914, Final residual = 0.00038034517, No Iterations 3
smoothSolver:  Solving for Uz, Initial residual = 0.0019384317, Final residual = 6.6222674e-05, No Iterations 3
GAMG:  Solving for p, Initial residual = 0.011302178, Final residual = 7.3065317e-05, No Iterations 3
time step continuity errors : sum local = 5.2842731e-06, global = 5.0214871e-08, cumulative = 0.00017491225
ExecutionTime = 11.321682 s  ClockTime = 12 s

Time = 62s

smoothSolver:  Solving for Ux, Initial residual = 0.0012549901, Final residual = 4.2881441e-05, No Iterations 3
smoothSolver:  Solving for Uy, Initial residual = 0.010954822, Final residual = 0.00037311653, No Iterations 3
smoothSolver:  Solving for Uz, Initial residual = 0.0019102273, Final residual = 6.5324061e-05, No Iterations 3
GAMG:  Solving for p, Initial residual = 0.011105529, Final residual = 7.2795482e-05, No Iterations 3
time step continuity errors : sum local = 5.270019e-06, global = 5.3279644e-08, cumulative = 0.00017496553
ExecutionTime = 11.485832 s  ClockTime = 12 s

Time = 63s

smoothSolver:  Solving for Ux, Initial residual = 0.0012399482, Final residual = 4.2406414e-05, No Iterations 3
smoothSolver:  Solving for Uy, Initial residual = 0.010738904, Final residual = 0.00036600318, No Iterations 3
smoothSolver:  Solving for Uz, Initial residual = 0.0018830035, Final residual = 6.4457284e-05, No Iterations 3
GAMG:  Solving for p, Initial residual = 0.01091799, Final residual = 7.5283466e-05, No Iterations 3
time step continuity errors : sum local = 5.4560483e-06, global = 5.8873892e-08, cumulative = 0.0001750244
ExecutionTime = 11.649699 s  ClockTime = 12 s

Time = 64s

smoothSolver:  Solving for Ux, Initial residual = 0.0012254631, Final residual = 4.1946374e-05, No Iterations 3
smoothSolver:  Solving for Uy, Initial residual = 0.010529217, Final residual = 0.00035906904, No Iterations 3
smoothSolver:  Solving for Uz, Initial residual = 0.0018565358, Final residual = 6.3610559e-05, No Iterations 3
GAMG:  Solving for p, Initial residual = 0.010742847, Final residual = 7.7428094e-05, No Iterations 3
time step continuity errors : sum local = 5.6169894e-06, global = 6.3056992e-08, cumulative = 0.00017508746
ExecutionTime = 11.813436 s  ClockTime = 12 s

Time = 65s

smoothSolver:  Solving for Ux, Initial residual = 0.0012114976, Final residual = 4.1496467e-05, No Iterations 3
smoothSolver:  Solving for Uy, Initial residual = 0.010326235, Final residual = 0.00035236144, No Iterations 3
smoothSolver:  Solving for Uz, Initial residual = 0.0018307081, Final residual = 6.2779089e-05, No Iterations 3
GAMG:  Solving for p, Initial residual = 0.010578463, Final residual = 7.7283411e-05, No Iterations 3
time step continuity errors : sum local = 5.6110674e-06, global = 6.4430626e-08, cumulative = 0.00017515189
ExecutionTime = 11.976291 s  ClockTime = 12 s

Time = 66s

smoothSolver:  Solving for Ux, Initial residual = 0.0011980561, Final residual = 4.1059441e-05, No Iterations 3
smoothSolver:  Solving for Uy, Initial residual = 0.010130487, Final residual = 0.00034590561, No Iterations 3
smoothSolver:  Solving for Uz, Initial residual = 0.0018055226, Final residual = 6.1964478e-05, No Iterations 3
GAMG:  Solving for p, Initial residual = 0.010421056, Final residual = 7.5372172e-05, No Iterations 3
time step continuity errors : sum local = 5.4761309e-06, global = 6.2884138e-08, cumulative = 0.00017521477
ExecutionTime = 12.139499 s  ClockTime = 13 s

Time = 67s

smoothSolver:  Solving for Ux, Initial residual = 0.0011851053, Final residual = 4.0636539e-05, No Iterations 3
smoothSolver:  Solving for Uy, Initial residual = 0.0099419175, Final residual = 0.0003396971, No Iterations 3
smoothSolver:  Solving for Uz, Initial residual = 0.0017810074, Final residual = 6.117015e-05, No Iterations 3
GAMG:  Solving for p, Initial residual = 0.010266393, Final residual = 7.2897199e-05, No Iterations 3
time step continuity errors : sum local = 5.2999452e-06, global = 5.9818057e-08, cumulative = 0.00017527459
ExecutionTime = 12.303219 s  ClockTime = 13 s

Time = 68s

smoothSolver:  Solving for Ux, Initial residual = 0.0011726433, Final residual = 4.0227538e-05, No Iterations 3
smoothSolver:  Solving for Uy, Initial residual = 0.0097596104, Final residual = 0.00033367688, No Iterations 3
smoothSolver:  Solving for Uz, Initial residual = 0.0017571948, Final residual = 6.0399263e-05, No Iterations 3
GAMG:  Solving for p, Initial residual = 0.010113768, Final residual = 7.049688e-05, No Iterations 3
time step continuity errors : sum local = 5.1293169e-06, global = 5.6962451e-08, cumulative = 0.00017533155
ExecutionTime = 12.468396 s  ClockTime = 13 s

Time = 69s

smoothSolver:  Solving for Ux, Initial residual = 0.001160669, Final residual = 3.9833912e-05, No Iterations 3
smoothSolver:  Solving for Uy, Initial residual = 0.0095831352, Final residual = 0.00032789867, No Iterations 3
smoothSolver:  Solving for Uz, Initial residual = 0.0017340799, Final residual = 5.9651989e-05, No Iterations 3
GAMG:  Solving for p, Initial residual = 0.0099644856, Final residual = 6.884966e-05, No Iterations 3
time step continuity errors : sum local = 5.013707e-06, global = 5.5408551e-08, cumulative = 0.00017538696
ExecutionTime = 12.632119 s  ClockTime = 13 s

Time = 70s

smoothSolver:  Solving for Ux, Initial residual = 0.0011491782, Final residual = 3.9455356e-05, No Iterations 3
smoothSolver:  Solving for Uy, Initial residual = 0.0094122188, Final residual = 0.00032229132, No Iterations 3
smoothSolver:  Solving for Uz, Initial residual = 0.0017116262, Final residual = 5.8926426e-05, No Iterations 3
GAMG:  Solving for p, Initial residual = 0.0098203591, Final residual = 6.8373563e-05, No Iterations 3
time step continuity errors : sum local = 4.9835268e-06, global = 5.5288527e-08, cumulative = 0.00017544225
ExecutionTime = 12.797366 s  ClockTime = 13 s

Time = 71s

smoothSolver:  Solving for Ux, Initial residual = 0.0011381748, Final residual = 3.9090043e-05, No Iterations 3
smoothSolver:  Solving for Uy, Initial residual = 0.0092466205, Final residual = 0.00031683815, No Iterations 3
smoothSolver:  Solving for Uz, Initial residual = 0.0016897931, Final residual = 5.8219836e-05, No Iterations 3
GAMG:  Solving for p, Initial residual = 0.009682667, Final residual = 6.862831e-05, No Iterations 3
time step continuity errors : sum local = 5.0066229e-06, global = 5.6133112e-08, cumulative = 0.00017549838
ExecutionTime = 12.958993 s  ClockTime = 13 s

Time = 72s

smoothSolver:  Solving for Ux, Initial residual = 0.0011276062, Final residual = 3.8736695e-05, No Iterations 3
smoothSolver:  Solving for Uy, Initial residual = 0.0090859841, Final residual = 0.00031153206, No Iterations 3
smoothSolver:  Solving for Uz, Initial residual = 0.001668541, Final residual = 5.7529868e-05, No Iterations 3
GAMG:  Solving for p, Initial residual = 0.0095516292, Final residual = 6.8750738e-05, No Iterations 3
time step continuity errors : sum local = 5.0199315e-06, global = 5.7137662e-08, cumulative = 0.00017555552
ExecutionTime = 13.124341 s  ClockTime = 14 s

Time = 73s

smoothSolver:  Solving for Ux, Initial residual = 0.0011174368, Final residual = 3.8393963e-05, No Iterations 3
smoothSolver:  Solving for Uy, Initial residual = 0.0089306041, Final residual = 0.00030636289, No Iterations 3
smoothSolver:  Solving for Uz, Initial residual = 0.001647836, Final residual = 5.6855945e-05, No Iterations 3
GAMG:  Solving for p, Initial residual = 0.0094259004, Final residual = 6.824506e-05, No Iterations 3
time step continuity errors : sum local = 4.9871693e-06, global = 5.7729619e-08, cumulative = 0.00017561325
ExecutionTime = 13.289024 s  ClockTime = 14 s

Time = 74s

smoothSolver:  Solving for Ux, Initial residual = 0.0011076494, Final residual = 3.8062667e-05, No Iterations 3
smoothSolver:  Solving for Uy, Initial residual = 0.0087806103, Final residual = 0.00030136372, No Iterations 3
smoothSolver:  Solving for Uz, Initial residual = 0.0016276773, Final residual = 5.6198341e-05, No Iterations 3
GAMG:  Solving for p, Initial residual = 0.0093037629, Final residual = 6.7139752e-05, No Iterations 3
time step continuity errors : sum local = 4.9104023e-06, global = 5.7716441e-08, cumulative = 0.00017567097
ExecutionTime = 13.452927 s  ClockTime = 14 s

Time = 75s

smoothSolver:  Solving for Ux, Initial residual = 0.0010982471, Final residual = 3.7743959e-05, No Iterations 3
smoothSolver:  Solving for Uy, Initial residual = 0.0086355098, Final residual = 0.00029648341, No Iterations 3
smoothSolver:  Solving for Uz, Initial residual = 0.0016080553, Final residual = 5.5557386e-05, No Iterations 3
GAMG:  Solving for p, Initial residual = 0.009184492, Final residual = 6.5730183e-05, No Iterations 3
time step continuity errors : sum local = 4.8112653e-06, global = 5.7171988e-08, cumulative = 0.00017572814
ExecutionTime = 13.616487 s  ClockTime = 14 s

Time = 76s

smoothSolver:  Solving for Ux, Initial residual = 0.00108921, Final residual = 3.7438353e-05, No Iterations 3
smoothSolver:  Solving for Uy, Initial residual = 0.0084950582, Final residual = 0.00029173994, No Iterations 3
smoothSolver:  Solving for Uz, Initial residual = 0.001588943, Final residual = 5.4932335e-05, No Iterations 3
GAMG:  Solving for p, Initial residual = 0.0090672446, Final residual = 6.4377762e-05, No Iterations 3
time step continuity errors : sum local = 4.7162466e-06, global = 5.6319022e-08, cumulative = 0.00017578446
ExecutionTime = 13.781581 s  ClockTime = 14 s

Time = 77s

smoothSolver:  Solving for Ux, Initial residual = 0.0010805699, Final residual = 3.7146506e-05, No Iterations 3
smoothSolver:  Solving for Uy, Initial residual = 0.0083594088, Final residual = 0.00028716472, No Iterations 3
smoothSolver:  Solving for Uz, Initial residual = 0.0015703289, Final residual = 5.4322446e-05, No Iterations 3
GAMG:  Solving for p, Initial residual = 0.0089527547, Final residual = 6.3345219e-05, No Iterations 3
time step continuity errors : sum local = 4.6446021e-06, global = 5.5416097e-08, cumulative = 0.00017583987
ExecutionTime = 13.943356 s  ClockTime = 14 s

Time = 78s

smoothSolver:  Solving for Ux, Initial residual = 0.001072314, Final residual = 3.686688e-05, No Iterations 3
smoothSolver:  Solving for Uy, Initial residual = 0.0082280798, Final residual = 0.0002827324, No Iterations 3
smoothSolver:  Solving for Uz, Initial residual = 0.0015521895, Final residual = 5.3727256e-05, No Iterations 3
GAMG:  Solving for p, Initial residual = 0.0088406206, Final residual = 6.2667373e-05, No Iterations 3
time step continuity errors : sum local = 4.5989077e-06, global = 5.4663908e-08, cumulative = 0.00017589454
ExecutionTime = 14.108069 s  ClockTime = 15 s

Time = 79s

smoothSolver:  Solving for Ux, Initial residual = 0.0010644414, Final residual = 3.6599396e-05, No Iterations 3
smoothSolver:  Solving for Uy, Initial residual = 0.0081007819, Final residual = 0.00027844436, No Iterations 3
smoothSolver:  Solving for Uz, Initial residual = 0.0015345099, Final residual = 5.3145841e-05, No Iterations 3
GAMG:  Solving for p, Initial residual = 0.0087316071, Final residual = 6.2181354e-05, No Iterations 3
time step continuity errors : sum local = 4.56721e-06, global = 5.4177384e-08, cumulative = 0.00017594872
ExecutionTime = 14.271909 s  ClockTime = 15 s

Time = 80s

smoothSolver:  Solving for Ux, Initial residual = 0.0010569559, Final residual = 3.634425e-05, No Iterations 3
smoothSolver:  Solving for Uy, Initial residual = 0.0079771354, Final residual = 0.00027430276, No Iterations 3
smoothSolver:  Solving for Uz, Initial residual = 0.0015172694, Final residual = 5.2577446e-05, No Iterations 3
GAMG:  Solving for p, Initial residual = 0.0086269166, Final residual = 6.1678863e-05, No Iterations 3
time step continuity errors : sum local = 4.5342115e-06, global = 5.3949704e-08, cumulative = 0.00017600267
ExecutionTime = 14.436349 s  ClockTime = 15 s

Time = 81s

smoothSolver:  Solving for Ux, Initial residual = 0.0010498481, Final residual = 3.6101302e-05, No Iterations 3
smoothSolver:  Solving for Uy, Initial residual = 0.0078570293, Final residual = 0.00027029171, No Iterations 3
smoothSolver:  Solving for Uz, Initial residual = 0.0015004555, Final residual = 5.2021886e-05, No Iterations 3
GAMG:  Solving for p, Initial residual = 0.0085259044, Final residual = 6.1018096e-05, No Iterations 3
time step continuity errors : sum local = 4.4894736e-06, global = 5.3844913e-08, cumulative = 0.00017605651
ExecutionTime = 14.606415 s  ClockTime = 15 s

Time = 82s

smoothSolver:  Solving for Ux, Initial residual = 0.0010430814, Final residual = 3.5870552e-05, No Iterations 3
smoothSolver:  Solving for Uy, Initial residual = 0.0077402683, Final residual = 0.0002663927, No Iterations 3
smoothSolver:  Solving for Uz, Initial residual = 0.0014840545, Final residual = 5.1479049e-05, No Iterations 3
GAMG:  Solving for p, Initial residual = 0.0084267735, Final residual = 6.020067e-05, No Iterations 3
time step continuity errors : sum local = 4.4331117e-06, global = 5.3724242e-08, cumulative = 0.00017611023
ExecutionTime = 14.782385 s  ClockTime = 15 s

Time = 83s

smoothSolver:  Solving for Ux, Initial residual = 0.001036656, Final residual = 3.5650869e-05, No Iterations 3
smoothSolver:  Solving for Uy, Initial residual = 0.0076271624, Final residual = 0.0002626049, No Iterations 3
smoothSolver:  Solving for Uz, Initial residual = 0.0014680562, Final residual = 5.094829e-05, No Iterations 3
GAMG:  Solving for p, Initial residual = 0.0083305356, Final residual = 5.9328841e-05, No Iterations 3
time step continuity errors : sum local = 4.3726496e-06, global = 5.3500101e-08, cumulative = 0.00017616373
ExecutionTime = 14.947287 s  ClockTime = 15 s

Time = 84s

smoothSolver:  Solving for Ux, Initial residual = 0.0010305793, Final residual = 3.5442976e-05, No Iterations 3
smoothSolver:  Solving for Uy, Initial residual = 0.0075174887, Final residual = 0.00025891921, No Iterations 3
smoothSolver:  Solving for Uz, Initial residual = 0.001452434, Final residual = 5.0429531e-05, No Iterations 3
GAMG:  Solving for p, Initial residual = 0.0082372069, Final residual = 5.8505969e-05, No Iterations 3
time step continuity errors : sum local = 4.31571e-06, global = 5.3119083e-08, cumulative = 0.00017621685
ExecutionTime = 15.112371 s  ClockTime = 16 s

Time = 85s

smoothSolver:  Solving for Ux, Initial residual = 0.001024824, Final residual = 3.5245657e-05, No Iterations 3
smoothSolver:  Solving for Uy, Initial residual = 0.0074108484, Final residual = 0.00025534782, No Iterations 3
smoothSolver:  Solving for Uz, Initial residual = 0.0014371781, Final residual = 4.9922433e-05, No Iterations 3
GAMG:  Solving for p, Initial residual = 0.0081459378, Final residual = 5.7769822e-05, No Iterations 3
time step continuity errors : sum local = 4.2650799e-06, global = 5.2572526e-08, cumulative = 0.00017626943
ExecutionTime = 15.276055 s  ClockTime = 16 s

Time = 86s

smoothSolver:  Solving for Ux, Initial residual = 0.0010193546, Final residual = 3.5057662e-05, No Iterations 3
smoothSolver:  Solving for Uy, Initial residual = 0.0073073607, Final residual = 0.00025186653, No Iterations 3
smoothSolver:  Solving for Uz, Initial residual = 0.0014222768, Final residual = 4.9426324e-05, No Iterations 3
GAMG:  Solving for p, Initial residual = 0.008056529, Final residual = 5.7111176e-05, No Iterations 3
time step continuity errors : sum local = 4.2200856e-06, global = 5.1920924e-08, cumulative = 0.00017632135
ExecutionTime = 15.442079 s  ClockTime = 16 s

Time = 87s

smoothSolver:  Solving for Ux, Initial residual = 0.001014147, Final residual = 3.4877114e-05, No Iterations 3
smoothSolver:  Solving for Uy, Initial residual = 0.0072071288, Final residual = 0.00024849178, No Iterations 3
smoothSolver:  Solving for Uz, Initial residual = 0.0014077122, Final residual = 4.8940778e-05, No Iterations 3
GAMG:  Solving for p, Initial residual = 0.0079699181, Final residual = 5.6505635e-05, No Iterations 3
time step continuity errors : sum local = 4.1789379e-06, global = 5.1279744e-08, cumulative = 0.00017637263
ExecutionTime = 15.606215 s  ClockTime = 16 s

Time = 88s

smoothSolver:  Solving for Ux, Initial residual = 0.0010092106, Final residual = 3.4704273e-05, No Iterations 3
smoothSolver:  Solving for Uy, Initial residual = 0.0071097633, Final residual = 0.00024522979, No Iterations 3
smoothSolver:  Solving for Uz, Initial residual = 0.0013934822, Final residual = 4.8465601e-05, No Iterations 3
GAMG:  Solving for p, Initial residual = 0.0078856211, Final residual = 5.592654e-05, No Iterations 3
time step continuity errors : sum local = 4.1396601e-06, global = 5.0755018e-08, cumulative = 0.00017642338
ExecutionTime = 15.771035 s  ClockTime = 16 s

Time = 89s

smoothSolver:  Solving for Ux, Initial residual = 0.0010045199, Final residual = 3.4538532e-05, No Iterations 3
smoothSolver:  Solving for Uy, Initial residual = 0.0070152346, Final residual = 0.00024207327, No Iterations 3
smoothSolver:  Solving for Uz, Initial residual = 0.0013795733, Final residual = 4.8000564e-05, No Iterations 3
GAMG:  Solving for p, Initial residual = 0.007803278, Final residual = 5.5342737e-05, No Iterations 3
time step continuity errors : sum local = 4.0999565e-06, global = 5.0354559e-08, cumulative = 0.00017647374
ExecutionTime = 15.935163 s  ClockTime = 16 s

Time = 90s

smoothSolver:  Solving for Ux, Initial residual = 0.0010000615, Final residual = 3.4380211e-05, No Iterations 3
smoothSolver:  Solving for Uy, Initial residual = 0.0069234373, Final residual = 0.00023901681, No Iterations 3
smoothSolver:  Solving for Uz, Initial residual = 0.0013659739, Final residual = 4.7545576e-05, No Iterations 3
GAMG:  Solving for p, Initial residual = 0.0077231542, Final residual = 5.4732245e-05, No Iterations 3
time step continuity errors : sum local = 4.0582022e-06, global = 5.0025826e-08, cumulative = 0.00017652376
ExecutionTime = 16.100772 s  ClockTime = 17 s

Time = 91s

smoothSolver:  Solving for Ux, Initial residual = 0.00099580966, Final residual = 3.4228507e-05, No Iterations 3
smoothSolver:  Solving for Uy, Initial residual = 0.0068343976, Final residual = 0.00023605036, No Iterations 3
smoothSolver:  Solving for Uz, Initial residual = 0.001352676, Final residual = 4.7100334e-05, No Iterations 3
GAMG:  Solving for p, Initial residual = 0.0076455945, Final residual = 5.41388e-05, No Iterations 3
time step continuity errors : sum local = 4.0176472e-06, global = 4.9556347e-08, cumulative = 0.00017657332
ExecutionTime = 16.263238 s  ClockTime = 17 s

Time = 92s

smoothSolver:  Solving for Ux, Initial residual = 0.00099176243, Final residual = 3.4084413e-05, No Iterations 3
smoothSolver:  Solving for Uy, Initial residual = 0.006748229, Final residual = 0.00023316094, No Iterations 3
smoothSolver:  Solving for Uz, Initial residual = 0.0013396678, Final residual = 4.6664725e-05, No Iterations 3
GAMG:  Solving for p, Initial residual = 0.0075707461, Final residual = 5.355697e-05, No Iterations 3
time step continuity errors : sum local = 3.9778855e-06, global = 4.9226629e-08, cumulative = 0.00017662255
ExecutionTime = 16.429474 s  ClockTime = 17 s

Time = 93s

smoothSolver:  Solving for Ux, Initial residual = 0.00098791918, Final residual = 3.3947816e-05, No Iterations 3
smoothSolver:  Solving for Uy, Initial residual = 0.0066644779, Final residual = 0.00023036565, No Iterations 3
smoothSolver:  Solving for Uz, Initial residual = 0.001326944, Final residual = 4.6238082e-05, No Iterations 3
GAMG:  Solving for p, Initial residual = 0.0074990722, Final residual = 5.3011855e-05, No Iterations 3
time step continuity errors : sum local = 3.94078e-06, global = 4.8902862e-08, cumulative = 0.00017667145
ExecutionTime = 16.593771 s  ClockTime = 17 s

Time = 94s

smoothSolver:  Solving for Ux, Initial residual = 0.00098424518, Final residual = 3.3817627e-05, No Iterations 3
smoothSolver:  Solving for Uy, Initial residual = 0.0065832984, Final residual = 0.00022763754, No Iterations 3
smoothSolver:  Solving for Uz, Initial residual = 0.0013144964, Final residual = 4.5819869e-05, No Iterations 3
GAMG:  Solving for p, Initial residual = 0.0074298111, Final residual = 5.2492707e-05, No Iterations 3
time step continuity errors : sum local = 3.9055388e-06, global = 4.8489057e-08, cumulative = 0.00017671994
ExecutionTime = 16.75837 s  ClockTime = 17 s

Time = 95s

smoothSolver:  Solving for Ux, Initial residual = 0.000980739, Final residual = 3.3693129e-05, No Iterations 3
smoothSolver:  Solving for Uy, Initial residual = 0.0065044747, Final residual = 0.0002249975, No Iterations 3
smoothSolver:  Solving for Uz, Initial residual = 0.0013023135, Final residual = 4.5409677e-05, No Iterations 3
GAMG:  Solving for p, Initial residual = 0.0073613155, Final residual = 5.198695e-05, No Iterations 3
time step continuity errors : sum local = 3.8712308e-06, global = 4.7984325e-08, cumulative = 0.00017676792
ExecutionTime = 16.92146 s  ClockTime = 17 s

Time = 96s

smoothSolver:  Solving for Ux, Initial residual = 0.00097740405, Final residual = 3.3573329e-05, No Iterations 3
smoothSolver:  Solving for Uy, Initial residual = 0.006427952, Final residual = 0.00022244076, No Iterations 3
smoothSolver:  Solving for Uz, Initial residual = 0.0012903851, Final residual = 4.5007466e-05, No Iterations 3
GAMG:  Solving for p, Initial residual = 0.0072942651, Final residual = 5.1514861e-05, No Iterations 3
time step continuity errors : sum local = 3.8393617e-06, global = 4.7586512e-08, cumulative = 0.00017681551
ExecutionTime = 17.086488 s  ClockTime = 18 s

Time = 97s

smoothSolver:  Solving for Ux, Initial residual = 0.00097421692, Final residual = 3.3458009e-05, No Iterations 3
smoothSolver:  Solving for Uy, Initial residual = 0.0063535918, Final residual = 0.0002199491, No Iterations 3
smoothSolver:  Solving for Uz, Initial residual = 0.0012786975, Final residual = 4.4613482e-05, No Iterations 3
GAMG:  Solving for p, Initial residual = 0.0072291064, Final residual = 5.1037532e-05, No Iterations 3
time step continuity errors : sum local = 3.8070358e-06, global = 4.7146361e-08, cumulative = 0.00017686265
ExecutionTime = 17.250328 s  ClockTime = 18 s

Time = 98s

smoothSolver:  Solving for Ux, Initial residual = 0.00097116314, Final residual = 3.3346843e-05, No Iterations 3
smoothSolver:  Solving for Uy, Initial residual = 0.0062814756, Final residual = 0.00021751065, No Iterations 3
smoothSolver:  Solving for Uz, Initial residual = 0.0012672503, Final residual = 4.4227094e-05, No Iterations 3
GAMG:  Solving for p, Initial residual = 0.0071645884, Final residual = 5.0563828e-05, No Iterations 3
time step continuity errors : sum local = 3.774914e-06, global = 4.6710757e-08, cumulative = 0.00017690936
ExecutionTime = 17.412524 s  ClockTime = 18 s

Time = 99s

smoothSolver:  Solving for Ux, Initial residual = 0.0009682366, Final residual = 3.3240193e-05, No Iterations 3
smoothSolver:  Solving for Uy, Initial residual = 0.0062114047, Final residual = 0.00021513239, No Iterations 3
smoothSolver:  Solving for Uz, Initial residual = 0.0012560366, Final residual = 4.3848491e-05, No Iterations 3
GAMG:  Solving for p, Initial residual = 0.0071015266, Final residual = 5.0097315e-05, No Iterations 3
time step continuity errors : sum local = 3.7432715e-06, global = 4.6318679e-08, cumulative = 0.00017695568
ExecutionTime = 17.576074 s  ClockTime = 18 s

Time = 100s

smoothSolver:  Solving for Ux, Initial residual = 0.00096543868, Final residual = 3.3138456e-05, No Iterations 3
smoothSolver:  Solving for Uy, Initial residual = 0.006143416, Final residual = 0.00021282295, No Iterations 3
smoothSolver:  Solving for Uz, Initial residual = 0.0012450474, Final residual = 4.3477178e-05, No Iterations 3
GAMG:  Solving for p, Initial residual = 0.0070398224, Final residual = 4.963979e-05, No Iterations 3
time step continuity errors : sum local = 3.7122421e-06, global = 4.5940258e-08, cumulative = 0.00017700162
ExecutionTime = 17.740372 s  ClockTime = 18 s

Time = 101s

smoothSolver:  Solving for Ux, Initial residual = 0.00096275679, Final residual = 3.3040777e-05, No Iterations 3
smoothSolver:  Solving for Uy, Initial residual = 0.0060774268, Final residual = 0.00021058109, No Iterations 3
smoothSolver:  Solving for Uz, Initial residual = 0.0012342726, Final residual = 4.3113222e-05, No Iterations 3
GAMG:  Solving for p, Initial residual = 0.0069796427, Final residual = 4.9195434e-05, No Iterations 3
time step continuity errors : sum local = 3.6821385e-06, global = 4.5557611e-08, cumulative = 0.00017704718
ExecutionTime = 17.904022 s  ClockTime = 18 s

Time = 102s

smoothSolver:  Solving for Ux, Initial residual = 0.00096019116, Final residual = 3.2947549e-05, No Iterations 3
smoothSolver:  Solving for Uy, Initial residual = 0.0060132815, Final residual = 0.00020839531, No Iterations 3
smoothSolver:  Solving for Uz, Initial residual = 0.0012237019, Final residual = 4.2755948e-05, No Iterations 3
GAMG:  Solving for p, Initial residual = 0.0069209298, Final residual = 4.8776118e-05, No Iterations 3
time step continuity errors : sum local = 3.6538504e-06, global = 4.5165312e-08, cumulative = 0.00017709235
ExecutionTime = 18.068607 s  ClockTime = 19 s

Time = 103s

smoothSolver:  Solving for Ux, Initial residual = 0.00095773473, Final residual = 3.285829e-05, No Iterations 3
smoothSolver:  Solving for Uy, Initial residual = 0.0059507554, Final residual = 0.00020625965, No Iterations 3
smoothSolver:  Solving for Uz, Initial residual = 0.0012133273, Final residual = 4.2405386e-05, No Iterations 3
GAMG:  Solving for p, Initial residual = 0.0068641157, Final residual = 4.837172e-05, No Iterations 3
time step continuity errors : sum local = 3.6266234e-06, global = 4.4754561e-08, cumulative = 0.0001771371
ExecutionTime = 18.232056 s  ClockTime = 19 s

Time = 104s

smoothSolver:  Solving for Ux, Initial residual = 0.00095539738, Final residual = 3.2772653e-05, No Iterations 3
smoothSolver:  Solving for Uy, Initial residual = 0.005890005, Final residual = 0.0002041626, No Iterations 3
smoothSolver:  Solving for Uz, Initial residual = 0.0012031443, Final residual = 4.2061372e-05, No Iterations 3
GAMG:  Solving for p, Initial residual = 0.0068088265, Final residual = 4.798042e-05, No Iterations 3
time step continuity errors : sum local = 3.6003319e-06, global = 4.4330459e-08, cumulative = 0.00017718143
ExecutionTime = 18.397574 s  ClockTime = 19 s

Time = 105s

smoothSolver:  Solving for Ux, Initial residual = 0.00095316025, Final residual = 3.2690562e-05, No Iterations 3
smoothSolver:  Solving for Uy, Initial residual = 0.0058310798, Final residual = 0.00020210158, No Iterations 3
smoothSolver:  Solving for Uz, Initial residual = 0.0011931429, Final residual = 4.1723976e-05, No Iterations 3
GAMG:  Solving for p, Initial residual = 0.0067564432, Final residual = 4.7556308e-05, No Iterations 3
time step continuity errors : sum local = 3.5715217e-06, global = 4.4343127e-08, cumulative = 0.00017722578
ExecutionTime = 18.561445 s  ClockTime = 19 s

Time = 106s

smoothSolver:  Solving for Ux, Initial residual = 0.00095101831, Final residual = 3.2611817e-05, No Iterations 3
smoothSolver:  Solving for Uy, Initial residual = 0.0057734525, Final residual = 0.00020006535, No Iterations 3
smoothSolver:  Solving for Uz, Initial residual = 0.0011833181, Final residual = 4.1392814e-05, No Iterations 3
GAMG:  Solving for p, Initial residual = 0.0067064855, Final residual = 4.7198481e-05, No Iterations 3
time step continuity errors : sum local = 3.547627e-06, global = 4.4152735e-08, cumulative = 0.00017726993
ExecutionTime = 18.724781 s  ClockTime = 19 s

Time = 107s

smoothSolver:  Solving for Ux, Initial residual = 0.00094896584, Final residual = 3.2536637e-05, No Iterations 3
smoothSolver:  Solving for Uy, Initial residual = 0.0057172224, Final residual = 0.00019806003, No Iterations 3
smoothSolver:  Solving for Uz, Initial residual = 0.0011736736, Final residual = 4.106782e-05, No Iterations 3
GAMG:  Solving for p, Initial residual = 0.0066574187, Final residual = 4.6828e-05, No Iterations 3
time step continuity errors : sum local = 3.5227254e-06, global = 4.4657055e-08, cumulative = 0.00017731458
ExecutionTime = 18.888142 s  ClockTime = 19 s

Time = 108s

smoothSolver:  Solving for Ux, Initial residual = 0.00094699378, Final residual = 3.2465597e-05, No Iterations 3
smoothSolver:  Solving for Uy, Initial residual = 0.0056627669, Final residual = 0.00019610685, No Iterations 3
smoothSolver:  Solving for Uz, Initial residual = 0.001164213, Final residual = 4.0749006e-05, No Iterations 3
GAMG:  Solving for p, Initial residual = 0.0066096613, Final residual = 4.6582377e-05, No Iterations 3
time step continuity errors : sum local = 3.5071719e-06, global = 4.3986334e-08, cumulative = 0.00017735857
ExecutionTime = 19.053043 s  ClockTime = 20 s

Time = 109s

smoothSolver:  Solving for Ux, Initial residual = 0.00094511227, Final residual = 3.2398237e-05, No Iterations 3
smoothSolver:  Solving for Uy, Initial residual = 0.0056100725, Final residual = 0.0001942028, No Iterations 3
smoothSolver:  Solving for Uz, Initial residual = 0.0011549293, Final residual = 4.0436213e-05, No Iterations 3
GAMG:  Solving for p, Initial residual = 0.0065625952, Final residual = 4.6709062e-05, No Iterations 3
time step continuity errors : sum local = 3.5196327e-06, global = 4.206473e-08, cumulative = 0.00017740064
ExecutionTime = 19.215691 s  ClockTime = 20 s

Time = 110s

smoothSolver:  Solving for Ux, Initial residual = 0.00094331504, Final residual = 3.2334316e-05, No Iterations 3
smoothSolver:  Solving for Uy, Initial residual = 0.0055590763, Final residual = 0.00019235221, No Iterations 3
smoothSolver:  Solving for Uz, Initial residual = 0.0011458156, Final residual = 4.0129611e-05, No Iterations 3
GAMG:  Solving for p, Initial residual = 0.0065158366, Final residual = 4.6420297e-05, No Iterations 3
time step continuity errors : sum local = 3.5007693e-06, global = 4.1311912e-08, cumulative = 0.00017744195
ExecutionTime = 19.380934 s  ClockTime = 20 s

Time = 111s

smoothSolver:  Solving for Ux, Initial residual = 0.00094159021, Final residual = 3.2274078e-05, No Iterations 3
smoothSolver:  Solving for Uy, Initial residual = 0.00550922, Final residual = 0.00019055536, No Iterations 3
smoothSolver:  Solving for Uz, Initial residual = 0.0011368642, Final residual = 3.9828936e-05, No Iterations 3
GAMG:  Solving for p, Initial residual = 0.0064691936, Final residual = 4.6119179e-05, No Iterations 3
time step continuity errors : sum local = 3.4809225e-06, global = 4.0545664e-08, cumulative = 0.00017748249
ExecutionTime = 19.544693 s  ClockTime = 20 s

Time = 112s

smoothSolver:  Solving for Ux, Initial residual = 0.0009399409, Final residual = 3.2216666e-05, No Iterations 3
smoothSolver:  Solving for Uy, Initial residual = 0.0054604962, Final residual = 0.00018879492, No Iterations 3
smoothSolver:  Solving for Uz, Initial residual = 0.0011280655, Final residual = 3.95335e-05, No Iterations 3
GAMG:  Solving for p, Initial residual = 0.0064242545, Final residual = 4.5817409e-05, No Iterations 3
time step continuity errors : sum local = 3.4609775e-06, global = 3.9857655e-08, cumulative = 0.00017752235
ExecutionTime = 19.709794 s  ClockTime = 20 s

Time = 113s

smoothSolver:  Solving for Ux, Initial residual = 0.0009383602, Final residual = 3.2162318e-05, No Iterations 3
smoothSolver:  Solving for Uy, Initial residual = 0.0054126961, Final residual = 0.0001870726, No Iterations 3
smoothSolver:  Solving for Uz, Initial residual = 0.0011194181, Final residual = 3.9243139e-05, No Iterations 3
GAMG:  Solving for p, Initial residual = 0.0063804868, Final residual = 4.5526609e-05, No Iterations 3
time step continuity errors : sum local = 3.4418153e-06, global = 3.9153919e-08, cumulative = 0.00017756151
ExecutionTime = 19.872299 s  ClockTime = 20 s

Time = 114s

smoothSolver:  Solving for Ux, Initial residual = 0.00093686345, Final residual = 3.2111051e-05, No Iterations 3
smoothSolver:  Solving for Uy, Initial residual = 0.0053659284, Final residual = 0.00018539347, No Iterations 3
smoothSolver:  Solving for Uz, Initial residual = 0.001110922, Final residual = 3.8957844e-05, No Iterations 3
GAMG:  Solving for p, Initial residual = 0.0063366967, Final residual = 4.5217938e-05, No Iterations 3
time step continuity errors : sum local = 3.4212515e-06, global = 3.9025857e-08, cumulative = 0.00017760053
ExecutionTime = 20.036995 s  ClockTime = 21 s

Time = 115s

smoothSolver:  Solving for Ux, Initial residual = 0.00093544285, Final residual = 3.2062963e-05, No Iterations 3
smoothSolver:  Solving for Uy, Initial residual = 0.0053202933, Final residual = 0.00018376068, No Iterations 3
smoothSolver:  Solving for Uz, Initial residual = 0.0011025727, Final residual = 3.8677416e-05, No Iterations 3
GAMG:  Solving for p, Initial residual = 0.0062936611, Final residual = 4.4945532e-05, No Iterations 3
time step continuity errors : sum local = 3.4033847e-06, global = 3.8606719e-08, cumulative = 0.00017763914
ExecutionTime = 20.201815 s  ClockTime = 21 s

Time = 116s

smoothSolver:  Solving for Ux, Initial residual = 0.00093410662, Final residual = 3.2017666e-05, No Iterations 3
smoothSolver:  Solving for Uy, Initial residual = 0.0052757541, Final residual = 0.00018216961, No Iterations 3
smoothSolver:  Solving for Uz, Initial residual = 0.0010943607, Final residual = 3.8401744e-05, No Iterations 3
GAMG:  Solving for p, Initial residual = 0.0062519066, Final residual = 4.4681643e-05, No Iterations 3
time step continuity errors : sum local = 3.3861219e-06, global = 3.8268452e-08, cumulative = 0.00017767741
ExecutionTime = 20.365149 s  ClockTime = 21 s

Time = 117s

smoothSolver:  Solving for Ux, Initial residual = 0.00093283794, Final residual = 3.1974979e-05, No Iterations 3
smoothSolver:  Solving for Uy, Initial residual = 0.0052325978, Final residual = 0.00018061992, No Iterations 3
smoothSolver:  Solving for Uz, Initial residual = 0.0010862812, Final residual = 3.813064e-05, No Iterations 3
GAMG:  Solving for p, Initial residual = 0.0062117174, Final residual = 4.4429482e-05, No Iterations 3
time step continuity errors : sum local = 3.3697082e-06, global = 3.7894721e-08, cumulative = 0.0001777153
ExecutionTime = 20.529933 s  ClockTime = 21 s

Time = 118s

smoothSolver:  Solving for Ux, Initial residual = 0.00093163899, Final residual = 3.1934237e-05, No Iterations 3
smoothSolver:  Solving for Uy, Initial residual = 0.0051903972, Final residual = 0.00017911388, No Iterations 3
smoothSolver:  Solving for Uz, Initial residual = 0.0010783325, Final residual = 3.7864054e-05, No Iterations 3
GAMG:  Solving for p, Initial residual = 0.0061730462, Final residual = 4.4189766e-05, No Iterations 3
time step continuity errors : sum local = 3.3542053e-06, global = 3.7461574e-08, cumulative = 0.00017775276
ExecutionTime = 20.693318 s  ClockTime = 21 s

Time = 119s

smoothSolver:  Solving for Ux, Initial residual = 0.00093048997, Final residual = 3.189545e-05, No Iterations 3
smoothSolver:  Solving for Uy, Initial residual = 0.0051487412, Final residual = 0.00017764362, No Iterations 3
smoothSolver:  Solving for Uz, Initial residual = 0.0010705135, Final residual = 3.7602129e-05, No Iterations 3
GAMG:  Solving for p, Initial residual = 0.0061352463, Final residual = 4.3962301e-05, No Iterations 3
time step continuity errors : sum local = 3.3396033e-06, global = 3.6972383e-08, cumulative = 0.00017778973
ExecutionTime = 20.857268 s  ClockTime = 21 s

Time = 120s

smoothSolver:  Solving for Ux, Initial residual = 0.00092939192, Final residual = 3.1858725e-05, No Iterations 3
smoothSolver:  Solving for Uy, Initial residual = 0.0051079953, Final residual = 0.00017619543, No Iterations 3
smoothSolver:  Solving for Uz, Initial residual = 0.0010628225, Final residual = 3.7344608e-05, No Iterations 3
GAMG:  Solving for p, Initial residual = 0.0060983386, Final residual = 4.376087e-05, No Iterations 3
time step continuity errors : sum local = 3.3269534e-06, global = 3.6470608e-08, cumulative = 0.00017782621
ExecutionTime = 21.022331 s  ClockTime = 22 s

Time = 121s

smoothSolver:  Solving for Ux, Initial residual = 0.00092834406, Final residual = 3.1824049e-05, No Iterations 3
smoothSolver:  Solving for Uy, Initial residual = 0.0050679451, Final residual = 0.00017477103, No Iterations 3
smoothSolver:  Solving for Uz, Initial residual = 0.001055256, Final residual = 3.7091083e-05, No Iterations 3
GAMG:  Solving for p, Initial residual = 0.006061578, Final residual = 4.3575681e-05, No Iterations 3
time step continuity errors : sum local = 3.3155079e-06, global = 3.5987025e-08, cumulative = 0.00017786219
ExecutionTime = 21.186511 s  ClockTime = 22 s

Time = 122s

smoothSolver:  Solving for Ux, Initial residual = 0.00092734786, Final residual = 3.1790922e-05, No Iterations 3
smoothSolver:  Solving for Uy, Initial residual = 0.0050285588, Final residual = 0.00017336715, No Iterations 3
smoothSolver:  Solving for Uz, Initial residual = 0.0010478083, Final residual = 3.6841505e-05, No Iterations 3
GAMG:  Solving for p, Initial residual = 0.0060236452, Final residual = 4.3395312e-05, No Iterations 3
time step continuity errors : sum local = 3.3043945e-06, global = 3.5550252e-08, cumulative = 0.00017789774
ExecutionTime = 21.350419 s  ClockTime = 22 s

Time = 123s

smoothSolver:  Solving for Ux, Initial residual = 0.00092639795, Final residual = 3.1759339e-05, No Iterations 3
smoothSolver:  Solving for Uy, Initial residual = 0.004989859, Final residual = 0.00017197848, No Iterations 3
smoothSolver:  Solving for Uz, Initial residual = 0.0010404723, Final residual = 3.6595865e-05, No Iterations 3
GAMG:  Solving for p, Initial residual = 0.00598557, Final residual = 4.3217022e-05, No Iterations 3
time step continuity errors : sum local = 3.293408e-06, global = 3.5174017e-08, cumulative = 0.00017793292
ExecutionTime = 21.51441 s  ClockTime = 22 s

Time = 124s

smoothSolver:  Solving for Ux, Initial residual = 0.00092548379, Final residual = 3.172933e-05, No Iterations 3
smoothSolver:  Solving for Uy, Initial residual = 0.0049516048, Final residual = 0.00017060731, No Iterations 3
smoothSolver:  Solving for Uz, Initial residual = 0.0010332508, Final residual = 3.6353928e-05, No Iterations 3
GAMG:  Solving for p, Initial residual = 0.0059487848, Final residual = 4.3049081e-05, No Iterations 3
time step continuity errors : sum local = 3.2831742e-06, global = 3.4859677e-08, cumulative = 0.00017796778
ExecutionTime = 21.67864 s  ClockTime = 22 s

Time = 125s

smoothSolver:  Solving for Ux, Initial residual = 0.0009246129, Final residual = 3.1700343e-05, No Iterations 3
smoothSolver:  Solving for Uy, Initial residual = 0.0049138192, Final residual = 0.00016925189, No Iterations 3
smoothSolver:  Solving for Uz, Initial residual = 0.0010261387, Final residual = 3.6115772e-05, No Iterations 3
GAMG:  Solving for p, Initial residual = 0.0059135542, Final residual = 4.2912644e-05, No Iterations 3
time step continuity errors : sum local = 3.2753077e-06, global = 3.4526451e-08, cumulative = 0.0001780023
ExecutionTime = 21.841429 s  ClockTime = 22 s

Time = 126s

smoothSolver:  Solving for Ux, Initial residual = 0.00092378965, Final residual = 3.1672769e-05, No Iterations 3
smoothSolver:  Solving for Uy, Initial residual = 0.0048765762, Final residual = 0.00016791914, No Iterations 3
smoothSolver:  Solving for Uz, Initial residual = 0.0010191356, Final residual = 3.5881275e-05, No Iterations 3
GAMG:  Solving for p, Initial residual = 0.0058796231, Final residual = 4.2753354e-05, No Iterations 3
time step continuity errors : sum local = 3.2656691e-06, global = 3.4133748e-08, cumulative = 0.00017803644
ExecutionTime = 22.005532 s  ClockTime = 23 s

Time = 127s

smoothSolver:  Solving for Ux, Initial residual = 0.00092301438, Final residual = 3.1646431e-05, No Iterations 3
smoothSolver:  Solving for Uy, Initial residual = 0.0048400898, Final residual = 0.00016661964, No Iterations 3
smoothSolver:  Solving for Uz, Initial residual = 0.0010122487, Final residual = 3.5650197e-05, No Iterations 3
GAMG:  Solving for p, Initial residual = 0.0058467139, Final residual = 4.2564417e-05, No Iterations 3
time step continuity errors : sum local = 3.2537401e-06, global = 3.3674775e-08, cumulative = 0.00017807011
ExecutionTime = 22.16827 s  ClockTime = 23 s

Time = 128s

smoothSolver:  Solving for Ux, Initial residual = 0.00092226792, Final residual = 3.1621959e-05, No Iterations 3
smoothSolver:  Solving for Uy, Initial residual = 0.004804172, Final residual = 0.00016534824, No Iterations 3
smoothSolver:  Solving for Uz, Initial residual = 0.0010054687, Final residual = 3.5422797e-05, No Iterations 3
GAMG:  Solving for p, Initial residual = 0.0058157609, Final residual = 4.2364426e-05, No Iterations 3
time step continuity errors : sum local = 3.2409325e-06, global = 3.3267775e-08, cumulative = 0.00017810338
ExecutionTime = 22.332591 s  ClockTime = 23 s

Time = 129s

smoothSolver:  Solving for Ux, Initial residual = 0.00092155231, Final residual = 3.1599308e-05, No Iterations 3
smoothSolver:  Solving for Uy, Initial residual = 0.00476887, Final residual = 0.00016409842, No Iterations 3
smoothSolver:  Solving for Uz, Initial residual = 0.00099879015, Final residual = 3.5198838e-05, No Iterations 3
GAMG:  Solving for p, Initial residual = 0.0057868365, Final residual = 4.2180358e-05, No Iterations 3
time step continuity errors : sum local = 3.2293202e-06, global = 3.2814108e-08, cumulative = 0.00017813619
ExecutionTime = 22.496231 s  ClockTime = 23 s

Time = 130s

smoothSolver:  Solving for Ux, Initial residual = 0.00092086517, Final residual = 3.1577765e-05, No Iterations 3
smoothSolver:  Solving for Uy, Initial residual = 0.0047342715, Final residual = 0.00016285726, No Iterations 3
smoothSolver:  Solving for Uz, Initial residual = 0.00099221615, Final residual = 3.4978174e-05, No Iterations 3
[...]
GAMG:  Solving for p, Initial residual = 1.4768103e-05, Final residual = 1.1608617e-07, No Iterations 2
time step continuity errors : sum local = 1.035296e-08, global = -1.4013117e-09, cumulative = 0.00018457926
ExecutionTime = 170.91562 s  ClockTime = 173 s

Time = 1067s

smoothSolver:  Solving for Ux, Initial residual = 3.6266591e-06, Final residual = 1.3900346e-07, No Iterations 3
smoothSolver:  Solving for Uy, Initial residual = 9.1760354e-06, Final residual = 3.2681413e-07, No Iterations 3
smoothSolver:  Solving for Uz, Initial residual = 1.7174833e-06, Final residual = 6.5057773e-08, No Iterations 3
GAMG:  Solving for p, Initial residual = 1.4597315e-05, Final residual = 1.1448728e-07, No Iterations 2
time step continuity errors : sum local = 1.0210357e-08, global = -1.3966203e-09, cumulative = 0.00018457786
ExecutionTime = 171.07065 s  ClockTime = 173 s

Time = 1068s

smoothSolver:  Solving for Ux, Initial residual = 3.5812039e-06, Final residual = 1.3732448e-07, No Iterations 3
smoothSolver:  Solving for Uy, Initial residual = 9.1025258e-06, Final residual = 3.2423984e-07, No Iterations 3
smoothSolver:  Solving for Uz, Initial residual = 1.6961516e-06, Final residual = 6.42739e-08, No Iterations 3
GAMG:  Solving for p, Initial residual = 1.4427733e-05, Final residual = 1.1290986e-07, No Iterations 2
time step continuity errors : sum local = 1.0069668e-08, global = -1.3917048e-09, cumulative = 0.00018457647
ExecutionTime = 171.22469 s  ClockTime = 173 s

Time = 1069s

smoothSolver:  Solving for Ux, Initial residual = 3.5360611e-06, Final residual = 1.3565421e-07, No Iterations 3
smoothSolver:  Solving for Uy, Initial residual = 9.0297488e-06, Final residual = 3.2170059e-07, No Iterations 3
smoothSolver:  Solving for Uz, Initial residual = 1.6749529e-06, Final residual = 6.3493937e-08, No Iterations 3
GAMG:  Solving for p, Initial residual = 1.4259292e-05, Final residual = 1.1136107e-07, No Iterations 2
time step continuity errors : sum local = 9.9315325e-09, global = -1.3865338e-09, cumulative = 0.00018457508
ExecutionTime = 171.38041 s  ClockTime = 173 s

Time = 1070s

smoothSolver:  Solving for Ux, Initial residual = 3.4912219e-06, Final residual = 1.3399193e-07, No Iterations 3
smoothSolver:  Solving for Uy, Initial residual = 8.9575444e-06, Final residual = 3.1917997e-07, No Iterations 3
smoothSolver:  Solving for Uz, Initial residual = 1.6538912e-06, Final residual = 6.271801e-08, No Iterations 3
GAMG:  Solving for p, Initial residual = 1.4091982e-05, Final residual = 1.0984014e-07, No Iterations 2
time step continuity errors : sum local = 9.7958824e-09, global = -1.3810689e-09, cumulative = 0.0001845737
ExecutionTime = 171.53473 s  ClockTime = 173 s

Time = 1071s

smoothSolver:  Solving for Ux, Initial residual = 3.4466724e-06, Final residual = 1.3233854e-07, No Iterations 3
smoothSolver:  Solving for Uy, Initial residual = 8.886107e-06, Final residual = 3.1670551e-07, No Iterations 3
smoothSolver:  Solving for Uz, Initial residual = 1.6329748e-06, Final residual = 6.1946642e-08, No Iterations 3
GAMG:  Solving for p, Initial residual = 1.3926067e-05, Final residual = 1.0835004e-07, No Iterations 2
time step continuity errors : sum local = 9.6629816e-09, global = -1.3752684e-09, cumulative = 0.00018457233
ExecutionTime = 171.69084 s  ClockTime = 174 s

Time = 1072s

smoothSolver:  Solving for Ux, Initial residual = 3.4024347e-06, Final residual = 1.3069331e-07, No Iterations 3
smoothSolver:  Solving for Uy, Initial residual = 8.8148866e-06, Final residual = 3.1426785e-07, No Iterations 3
smoothSolver:  Solving for Uz, Initial residual = 1.6122007e-06, Final residual = 6.1179644e-08, No Iterations 3
GAMG:  Solving for p, Initial residual = 1.376149e-05, Final residual = 1.0688856e-07, No Iterations 2
time step continuity errors : sum local = 9.5326338e-09, global = -1.3690922e-09, cumulative = 0.00018457096
ExecutionTime = 171.84663 s  ClockTime = 174 s

Time = 1073s

smoothSolver:  Solving for Ux, Initial residual = 3.3585012e-06, Final residual = 1.290574e-07, No Iterations 3
smoothSolver:  Solving for Uy, Initial residual = 8.7440886e-06, Final residual = 3.1186091e-07, No Iterations 3
smoothSolver:  Solving for Uz, Initial residual = 1.5915701e-06, Final residual = 6.0416827e-08, No Iterations 3
GAMG:  Solving for p, Initial residual = 1.3598258e-05, Final residual = 1.054542e-07, No Iterations 2
time step continuity errors : sum local = 9.404704e-09, global = -1.3625049e-09, cumulative = 0.0001845696
ExecutionTime = 172.00088 s  ClockTime = 174 s

Time = 1074s

smoothSolver:  Solving for Ux, Initial residual = 3.3148639e-06, Final residual = 1.2742927e-07, No Iterations 3
smoothSolver:  Solving for Uy, Initial residual = 8.6736877e-06, Final residual = 3.0947603e-07, No Iterations 3
smoothSolver:  Solving for Uz, Initial residual = 1.5710725e-06, Final residual = 5.9657768e-08, No Iterations 3
GAMG:  Solving for p, Initial residual = 1.3436206e-05, Final residual = 1.0404259e-07, No Iterations 2
time step continuity errors : sum local = 9.2788042e-09, global = -1.3554798e-09, cumulative = 0.00018456824
ExecutionTime = 172.1546 s  ClockTime = 174 s

Time = 1075s

smoothSolver:  Solving for Ux, Initial residual = 3.2715415e-06, Final residual = 1.2580985e-07, No Iterations 3
smoothSolver:  Solving for Uy, Initial residual = 8.6036755e-06, Final residual = 3.0710632e-07, No Iterations 3
smoothSolver:  Solving for Uz, Initial residual = 1.5507192e-06, Final residual = 5.8903547e-08, No Iterations 3
GAMG:  Solving for p, Initial residual = 1.3275291e-05, Final residual = 1.0264961e-07, No Iterations 2
time step continuity errors : sum local = 9.1545653e-09, global = -1.3479955e-09, cumulative = 0.00018456689
ExecutionTime = 172.3094 s  ClockTime = 174 s

Time = 1076s

smoothSolver:  Solving for Ux, Initial residual = 3.2285635e-06, Final residual = 1.2419915e-07, No Iterations 3
smoothSolver:  Solving for Uy, Initial residual = 8.5338744e-06, Final residual = 3.0474942e-07, No Iterations 3
smoothSolver:  Solving for Uz, Initial residual = 1.5305184e-06, Final residual = 5.8153986e-08, No Iterations 3
GAMG:  Solving for p, Initial residual = 1.3115724e-05, Final residual = 1.0127768e-07, No Iterations 2
time step continuity errors : sum local = 9.0322042e-09, global = -1.3400378e-09, cumulative = 0.00018456555
ExecutionTime = 172.46468 s  ClockTime = 174 s

Time = 1077s

smoothSolver:  Solving for Ux, Initial residual = 3.1858752e-06, Final residual = 1.2259907e-07, No Iterations 3
smoothSolver:  Solving for Uy, Initial residual = 8.4642349e-06, Final residual = 3.0240233e-07, No Iterations 3
smoothSolver:  Solving for Uz, Initial residual = 1.510467e-06, Final residual = 5.7408549e-08, No Iterations 3
GAMG:  Solving for p, Initial residual = 1.2957359e-05, Final residual = 9.9927733e-08, No Iterations 2
time step continuity errors : sum local = 8.9118036e-09, global = -1.3315821e-09, cumulative = 0.00018456422
ExecutionTime = 172.62001 s  ClockTime = 175 s

Time = 1078s

smoothSolver:  Solving for Ux, Initial residual = 3.1435116e-06, Final residual = 1.2100793e-07, No Iterations 3
smoothSolver:  Solving for Uy, Initial residual = 8.3952945e-06, Final residual = 3.0007647e-07, No Iterations 3
smoothSolver:  Solving for Uz, Initial residual = 1.4905468e-06, Final residual = 5.666797e-08, No Iterations 3
GAMG:  Solving for p, Initial residual = 1.2799873e-05, Final residual = 9.8599826e-08, No Iterations 2
time step continuity errors : sum local = 8.7933688e-09, global = -1.3225814e-09, cumulative = 0.0001845629
ExecutionTime = 172.77648 s  ClockTime = 175 s

Time = 1079s

smoothSolver:  Solving for Ux, Initial residual = 3.101423e-06, Final residual = 1.1942553e-07, No Iterations 3
smoothSolver:  Solving for Uy, Initial residual = 8.3272513e-06, Final residual = 2.9777714e-07, No Iterations 3
smoothSolver:  Solving for Uz, Initial residual = 1.470753e-06, Final residual = 5.5931691e-08, No Iterations 3
GAMG:  Solving for p, Initial residual = 1.2643151e-05, Final residual = 9.7294018e-08, No Iterations 2
time step continuity errors : sum local = 8.6769052e-09, global = -1.3129671e-09, cumulative = 0.00018456159
ExecutionTime = 172.93196 s  ClockTime = 175 s

Time = 1080s

smoothSolver:  Solving for Ux, Initial residual = 3.0596359e-06, Final residual = 1.1785173e-07, No Iterations 3
smoothSolver:  Solving for Uy, Initial residual = 8.259436e-06, Final residual = 2.9550626e-07, No Iterations 3
smoothSolver:  Solving for Uz, Initial residual = 1.4510848e-06, Final residual = 5.5199516e-08, No Iterations 3
GAMG:  Solving for p, Initial residual = 1.2487397e-05, Final residual = 9.6012668e-08, No Iterations 2
time step continuity errors : sum local = 8.5626229e-09, global = -1.3026783e-09, cumulative = 0.00018456028
ExecutionTime = 173.08646 s  ClockTime = 175 s

Time = 1081s

smoothSolver:  Solving for Ux, Initial residual = 3.0181605e-06, Final residual = 1.1628786e-07, No Iterations 3
smoothSolver:  Solving for Uy, Initial residual = 8.1917405e-06, Final residual = 2.9325044e-07, No Iterations 3
smoothSolver:  Solving for Uz, Initial residual = 1.4315506e-06, Final residual = 5.4471525e-08, No Iterations 3
GAMG:  Solving for p, Initial residual = 1.2332562e-05, Final residual = 9.4759239e-08, No Iterations 2
time step continuity errors : sum local = 8.450831e-09, global = -1.2916437e-09, cumulative = 0.00018455899
ExecutionTime = 173.24059 s  ClockTime = 175 s

Time = 1082s

smoothSolver:  Solving for Ux, Initial residual = 2.9770361e-06, Final residual = 1.1473451e-07, No Iterations 3
smoothSolver:  Solving for Uy, Initial residual = 8.1247653e-06, Final residual = 2.9100348e-07, No Iterations 3
smoothSolver:  Solving for Uz, Initial residual = 1.4121478e-06, Final residual = 5.374701e-08, No Iterations 3
GAMG:  Solving for p, Initial residual = 1.2179088e-05, Final residual = 9.3537946e-08, No Iterations 2
time step continuity errors : sum local = 8.3419051e-09, global = -1.2797806e-09, cumulative = 0.00018455771
ExecutionTime = 173.39658 s  ClockTime = 175 s

Time = 1083s

smoothSolver:  Solving for Ux, Initial residual = 2.9362412e-06, Final residual = 1.1319178e-07, No Iterations 3
smoothSolver:  Solving for Uy, Initial residual = 8.0583341e-06, Final residual = 2.8877705e-07, No Iterations 3
smoothSolver:  Solving for Uz, Initial residual = 1.3928808e-06, Final residual = 5.3026655e-08, No Iterations 3
GAMG:  Solving for p, Initial residual = 1.2026714e-05, Final residual = 9.2351374e-08, No Iterations 2
time step continuity errors : sum local = 8.2360758e-09, global = -1.2670009e-09, cumulative = 0.00018455644
ExecutionTime = 173.55033 s  ClockTime = 175 s

Time = 1084s

smoothSolver:  Solving for Ux, Initial residual = 2.8957882e-06, Final residual = 1.1166135e-07, No Iterations 3
smoothSolver:  Solving for Uy, Initial residual = 7.9921112e-06, Final residual = 2.865696e-07, No Iterations 3
smoothSolver:  Solving for Uz, Initial residual = 1.3737552e-06, Final residual = 5.2310024e-08, No Iterations 3
GAMG:  Solving for p, Initial residual = 1.1875513e-05, Final residual = 9.1198207e-08, No Iterations 2
time step continuity errors : sum local = 8.133226e-09, global = -1.2532107e-09, cumulative = 0.00018455519
ExecutionTime = 173.70623 s  ClockTime = 176 s

Time = 1085s

smoothSolver:  Solving for Ux, Initial residual = 2.855718e-06, Final residual = 1.1014169e-07, No Iterations 3
smoothSolver:  Solving for Uy, Initial residual = 7.9262879e-06, Final residual = 2.8438003e-07, No Iterations 3
smoothSolver:  Solving for Uz, Initial residual = 1.3547715e-06, Final residual = 5.1597073e-08, No Iterations 3
GAMG:  Solving for p, Initial residual = 1.1725293e-05, Final residual = 9.0077127e-08, No Iterations 2
time step continuity errors : sum local = 8.0332378e-09, global = -1.2383058e-09, cumulative = 0.00018455395
ExecutionTime = 173.86217 s  ClockTime = 176 s

Time = 1086s

smoothSolver:  Solving for Ux, Initial residual = 2.8159541e-06, Final residual = 1.0863278e-07, No Iterations 3
smoothSolver:  Solving for Uy, Initial residual = 7.8608004e-06, Final residual = 2.8220287e-07, No Iterations 3
smoothSolver:  Solving for Uz, Initial residual = 1.3359278e-06, Final residual = 5.0887939e-08, No Iterations 3
GAMG:  Solving for p, Initial residual = 1.1576195e-05, Final residual = 8.8992099e-08, No Iterations 2
time step continuity errors : sum local = 7.936465e-09, global = -1.2221644e-09, cumulative = 0.00018455273
ExecutionTime = 174.01579 s  ClockTime = 176 s

Time = 1087s

smoothSolver:  Solving for Ux, Initial residual = 2.7764963e-06, Final residual = 1.0713381e-07, No Iterations 3
smoothSolver:  Solving for Uy, Initial residual = 7.7958699e-06, Final residual = 2.8004257e-07, No Iterations 3
smoothSolver:  Solving for Uz, Initial residual = 1.3172164e-06, Final residual = 5.0183051e-08, No Iterations 3
GAMG:  Solving for p, Initial residual = 1.1428302e-05, Final residual = 8.7957719e-08, No Iterations 2
time step continuity errors : sum local = 7.8442093e-09, global = -1.2047604e-09, cumulative = 0.00018455153
ExecutionTime = 174.16992 s  ClockTime = 176 s

Time = 1088s

smoothSolver:  Solving for Ux, Initial residual = 2.7373637e-06, Final residual = 1.0564669e-07, No Iterations 3
smoothSolver:  Solving for Uy, Initial residual = 7.7313322e-06, Final residual = 2.7790058e-07, No Iterations 3
smoothSolver:  Solving for Uz, Initial residual = 1.2986486e-06, Final residual = 4.9482746e-08, No Iterations 3
GAMG:  Solving for p, Initial residual = 1.1281815e-05, Final residual = 8.6951138e-08, No Iterations 2
time step continuity errors : sum local = 7.7544328e-09, global = -1.1858442e-09, cumulative = 0.00018455034
ExecutionTime = 174.3242 s  ClockTime = 176 s

Time = 1089s

smoothSolver:  Solving for Ux, Initial residual = 2.6985969e-06, Final residual = 1.0417183e-07, No Iterations 3
smoothSolver:  Solving for Uy, Initial residual = 7.6669492e-06, Final residual = 2.757972e-07, No Iterations 3
smoothSolver:  Solving for Uz, Initial residual = 1.2802253e-06, Final residual = 4.8786451e-08, No Iterations 3
GAMG:  Solving for p, Initial residual = 1.1136464e-05, Final residual = 8.5986101e-08, No Iterations 2
time step continuity errors : sum local = 7.6683616e-09, global = -1.1653254e-09, cumulative = 0.00018454918
ExecutionTime = 174.48048 s  ClockTime = 176 s

Time = 1090s

smoothSolver:  Solving for Ux, Initial residual = 2.6601645e-06, Final residual = 1.0270702e-07, No Iterations 3
smoothSolver:  Solving for Uy, Initial residual = 7.6026871e-06, Final residual = 2.737215e-07, No Iterations 3
smoothSolver:  Solving for Uz, Initial residual = 1.2619353e-06, Final residual = 4.8094428e-08, No Iterations 3
GAMG:  Solving for p, Initial residual = 1.0991997e-05, Final residual = 8.5052323e-08, No Iterations 2
time step continuity errors : sum local = 7.5850782e-09, global = -1.1430684e-09, cumulative = 0.00018454803
ExecutionTime = 174.63873 s  ClockTime = 177 s

Time = 1091s

smoothSolver:  Solving for Ux, Initial residual = 2.622089e-06, Final residual = 1.0125292e-07, No Iterations 3
smoothSolver:  Solving for Uy, Initial residual = 7.5386398e-06, Final residual = 2.716715e-07, No Iterations 3
smoothSolver:  Solving for Uz, Initial residual = 1.2437734e-06, Final residual = 4.7406326e-08, No Iterations 3
GAMG:  Solving for p, Initial residual = 1.084874e-05, Final residual = 8.4140443e-08, No Iterations 2
time step continuity errors : sum local = 7.5037478e-09, global = -1.1188438e-09, cumulative = 0.00018454691
ExecutionTime = 174.79711 s  ClockTime = 177 s

Time = 1092s

smoothSolver:  Solving for Ux, Initial residual = 2.5843795e-06, Final residual = 9.9809999e-08, No Iterations 3
smoothSolver:  Solving for Uy, Initial residual = 7.4746457e-06, Final residual = 2.696388e-07, No Iterations 3
smoothSolver:  Solving for Uz, Initial residual = 1.2257502e-06, Final residual = 4.6722305e-08, No Iterations 3
GAMG:  Solving for p, Initial residual = 1.0706842e-05, Final residual = 8.3251066e-08, No Iterations 2
time step continuity errors : sum local = 7.4244245e-09, global = -1.0924942e-09, cumulative = 0.00018454582
ExecutionTime = 174.95152 s  ClockTime = 177 s

Time = 1093s

smoothSolver:  Solving for Ux, Initial residual = 2.5470107e-06, Final residual = 9.8379768e-08, No Iterations 3
smoothSolver:  Solving for Uy, Initial residual = 7.4107405e-06, Final residual = 2.6763157e-07, No Iterations 3
smoothSolver:  Solving for Uz, Initial residual = 1.2078654e-06, Final residual = 4.604304e-08, No Iterations 3
GAMG:  Solving for p, Initial residual = 1.056624e-05, Final residual = 8.2372875e-08, No Iterations 2
time step continuity errors : sum local = 7.3460989e-09, global = -1.064023e-09, cumulative = 0.00018454476
ExecutionTime = 175.10732 s  ClockTime = 177 s

Time = 1094s

smoothSolver:  Solving for Ux, Initial residual = 2.5099777e-06, Final residual = 9.6960909e-08, No Iterations 3
smoothSolver:  Solving for Uy, Initial residual = 7.3473295e-06, Final residual = 2.6562418e-07, No Iterations 3
smoothSolver:  Solving for Uz, Initial residual = 1.190131e-06, Final residual = 4.5368785e-08, No Iterations 3
GAMG:  Solving for p, Initial residual = 1.0426784e-05, Final residual = 8.1512668e-08, No Iterations 2
time step continuity errors : sum local = 7.2693773e-09, global = -1.0327357e-09, cumulative = 0.00018454372
ExecutionTime = 175.26217 s  ClockTime = 177 s

Time = 1095s

smoothSolver:  Solving for Ux, Initial residual = 2.473286e-06, Final residual = 9.5553831e-08, No Iterations 3
smoothSolver:  Solving for Uy, Initial residual = 7.2845672e-06, Final residual = 2.6362983e-07, No Iterations 3
smoothSolver:  Solving for Uz, Initial residual = 1.1725551e-06, Final residual = 4.4698796e-08, No Iterations 3
GAMG:  Solving for p, Initial residual = 1.0288519e-05, Final residual = 8.0665848e-08, No Iterations 2
time step continuity errors : sum local = 7.1938497e-09, global = -9.9855483e-10, cumulative = 0.00018454273
ExecutionTime = 175.41833 s  ClockTime = 177 s

Time = 1096s

smoothSolver:  Solving for Ux, Initial residual = 2.4369405e-06, Final residual = 9.4158871e-08, No Iterations 3
smoothSolver:  Solving for Uy, Initial residual = 7.2220775e-06, Final residual = 2.6164174e-07, No Iterations 3
smoothSolver:  Solving for Uz, Initial residual = 1.155137e-06, Final residual = 4.4033147e-08, No Iterations 3
GAMG:  Solving for p, Initial residual = 1.0151399e-05, Final residual = 7.9833452e-08, No Iterations 2
time step continuity errors : sum local = 7.1196087e-09, global = -9.6110247e-10, cumulative = 0.00018454176
ExecutionTime = 175.57201 s  ClockTime = 178 s

Time = 1097s

smoothSolver:  Solving for Ux, Initial residual = 2.4009986e-06, Final residual = 9.2776229e-08, No Iterations 3
smoothSolver:  Solving for Uy, Initial residual = 7.1596969e-06, Final residual = 2.596538e-07, No Iterations 3
smoothSolver:  Solving for Uz, Initial residual = 1.1378557e-06, Final residual = 4.3372454e-08, No Iterations 3
GAMG:  Solving for p, Initial residual = 1.0015342e-05, Final residual = 7.901627e-08, No Iterations 2
time step continuity errors : sum local = 7.0467246e-09, global = -9.1999358e-10, cumulative = 0.00018454084
ExecutionTime = 175.72512 s  ClockTime = 178 s

Time = 1098s

smoothSolver:  Solving for Ux, Initial residual = 2.3654044e-06, Final residual = 9.1405386e-08, No Iterations 3
smoothSolver:  Solving for Uy, Initial residual = 7.0975879e-06, Final residual = 2.5767095e-07, No Iterations 3
smoothSolver:  Solving for Uz, Initial residual = 1.1207215e-06, Final residual = 4.271668e-08, No Iterations 3
GAMG:  Solving for p, Initial residual = 9.8803252e-06, Final residual = 7.8218096e-08, No Iterations 2
time step continuity errors : sum local = 6.9755358e-09, global = -8.7486932e-10, cumulative = 0.00018453997
ExecutionTime = 175.87921 s  ClockTime = 178 s


SIMPLE solution converged in 1098 iterations

End

Finalising parallel run
