/*---------------------------------------------------------------------------*\
  =========                 |
  \\      /  F ield         | OpenFOAM: The Open Source CFD Toolbox
   \\    /   O peration     | Website:  https://openfoam.org
    \\  /    A nd           | Version:  11
     \\/     M anipulation  |
\*---------------------------------------------------------------------------*/
Build  : 11-e1fc8c682ae6
Exec   : foamRun -solver incompressibleFluid -parallel
Date   : Feb 07 2026
Time   : 18:01:00
Host   : "ip-172-31-18-192"
PID    : 119433
I/O    : uncollated
Case   : /home/ubuntu/cases/bifurcation_angle30_750_ascii/Re100
nProcs : 16
Slaves : 
15
(
"ip-172-31-18-192.119434"
"ip-172-31-18-192.119435"
"ip-172-31-18-192.119436"
"ip-172-31-18-192.119437"
"ip-172-31-18-192.119438"
"ip-172-31-18-192.119439"
"ip-172-31-18-192.119440"
"ip-172-31-18-192.119441"
"ip-172-31-18-192.119442"
"ip-172-31-18-192.119443"
"ip-172-31-18-192.119444"
"ip-172-31-18-192.119445"
"ip-172-31-18-192.119446"
"ip-172-31-18-192.119447"
"ip-172-31-18-192.119448"
)

Pstream initialised with:
    floatTransfer      : false
    nProcsSimpleSum    : 0
    commsType          : nonBlocking
    polling iterations : 0
sigFpe : Enabling floating point exception trapping (FOAM_SIGFPE).
fileModificationChecking : Monitoring run-time modified files using timeStampMaster (fileModificationSkew 10)
allowSystemOperations : Allowing user-supplied system call operations

// * * * * * * * * * * * * * * * * * * * * * * * * * * * * * * * * * * * * * //
Create time

Create mesh for time = 0

Selecting solver incompressibleFluid
Selecting viscosity model Newtonian
Selecting turbulence model type laminar
Selecting laminar stress model Stokes
No MRF models present


SIMPLE: Convergence criteria found
        p: tolerance 1e-05
        U: tolerance 1e-05


SIMPLE: Operating solver in steady-state mode with 1 outer corrector
SIMPLE: Operating solver in SIMPLE mode



Starting time loop

wallShearStress wallShearStress:
    processing wall patches: 
        wall-fluid_domain

Time = 1s

smoothSolver:  Solving for Ux, Initial residual = 1, Final residual = 0.045081003, No Iterations 1
smoothSolver:  Solving for Uy, Initial residual = 1, Final residual = 0.052498528, No Iterations 1
smoothSolver:  Solving for Uz, Initial residual = 1, Final residual = 0.036561218, No Iterations 1
GAMG:  Solving for p, Initial residual = 1, Final residual = 0.0078181153, No Iterations 10
time step continuity errors : sum local = 6.3536556e-05, global = -1.3407204e-06, cumulative = -1.3407204e-06
ExecutionTime = 0.632226 s  ClockTime = 1 s

Time = 2s

smoothSolver:  Solving for Ux, Initial residual = 0.25179636, Final residual = 0.020470277, No Iterations 2
smoothSolver:  Solving for Uy, Initial residual = 0.26200309, Final residual = 0.010747798, No Iterations 2
smoothSolver:  Solving for Uz, Initial residual = 0.30042295, Final residual = 0.0096143535, No Iterations 3
GAMG:  Solving for p, Initial residual = 0.22641132, Final residual = 0.0011677179, No Iterations 6
time step continuity errors : sum local = 0.0015359576, global = -4.7779605e-05, cumulative = -4.9120325e-05
ExecutionTime = 0.823163 s  ClockTime = 1 s

Time = 3s

smoothSolver:  Solving for Ux, Initial residual = 0.23473338, Final residual = 0.0074294847, No Iterations 3
smoothSolver:  Solving for Uy, Initial residual = 0.11872649, Final residual = 0.0066648962, No Iterations 2
smoothSolver:  Solving for Uz, Initial residual = 0.47372208, Final residual = 0.016410664, No Iterations 3
GAMG:  Solving for p, Initial residual = 0.13874067, Final residual = 0.0013442268, No Iterations 3
time step continuity errors : sum local = 0.0049910288, global = 0.00014256305, cumulative = 9.3442721e-05
ExecutionTime = 0.984918 s  ClockTime = 1 s

Time = 4s

smoothSolver:  Solving for Ux, Initial residual = 0.14108456, Final residual = 0.004627971, No Iterations 3
smoothSolver:  Solving for Uy, Initial residual = 0.064687944, Final residual = 0.0036627214, No Iterations 2
smoothSolver:  Solving for Uz, Initial residual = 0.29608937, Final residual = 0.010281441, No Iterations 3
GAMG:  Solving for p, Initial residual = 0.091856997, Final residual = 0.00035263277, No Iterations 6
time step continuity errors : sum local = 0.001205105, global = 1.967724e-05, cumulative = 0.00011311996
ExecutionTime = 1.172476 s  ClockTime = 1 s

Time = 5s

smoothSolver:  Solving for Ux, Initial residual = 0.063550989, Final residual = 0.0058760221, No Iterations 2
smoothSolver:  Solving for Uy, Initial residual = 0.21339776, Final residual = 0.0134201, No Iterations 2
smoothSolver:  Solving for Uz, Initial residual = 0.098644929, Final residual = 0.0034251134, No Iterations 3
GAMG:  Solving for p, Initial residual = 0.11991245, Final residual = 0.00079127494, No Iterations 6
time step continuity errors : sum local = 0.0012079252, global = 4.0859131e-05, cumulative = 0.00015397909
ExecutionTime = 1.362458 s  ClockTime = 1 s

Time = 6s

smoothSolver:  Solving for Ux, Initial residual = 0.083721191, Final residual = 0.0072704733, No Iterations 2
smoothSolver:  Solving for Uy, Initial residual = 0.39219187, Final residual = 0.02391029, No Iterations 2
smoothSolver:  Solving for Uz, Initial residual = 0.074305268, Final residual = 0.0025093043, No Iterations 3
GAMG:  Solving for p, Initial residual = 0.38236174, Final residual = 0.003043605, No Iterations 4
time step continuity errors : sum local = 0.0036333849, global = 8.5955678e-05, cumulative = 0.00023993477
ExecutionTime = 1.530846 s  ClockTime = 1 s

Time = 7s

smoothSolver:  Solving for Ux, Initial residual = 0.12593631, Final residual = 0.012060142, No Iterations 2
smoothSolver:  Solving for Uy, Initial residual = 0.2247314, Final residual = 0.013063849, No Iterations 2
smoothSolver:  Solving for Uz, Initial residual = 0.18046104, Final residual = 0.0062241642, No Iterations 3
GAMG:  Solving for p, Initial residual = 0.25047335, Final residual = 0.0011847967, No Iterations 4
time step continuity errors : sum local = 0.0022577688, global = -6.3822873e-06, cumulative = 0.00023355248
ExecutionTime = 1.700219 s  ClockTime = 2 s

Time = 8s

smoothSolver:  Solving for Ux, Initial residual = 0.10272673, Final residual = 0.0032077328, No Iterations 3
smoothSolver:  Solving for Uy, Initial residual = 0.12727261, Final residual = 0.008519164, No Iterations 2
smoothSolver:  Solving for Uz, Initial residual = 0.17310997, Final residual = 0.0059730192, No Iterations 3
GAMG:  Solving for p, Initial residual = 0.1950502, Final residual = 0.0011087631, No Iterations 5
time step continuity errors : sum local = 0.0016496854, global = -1.3094013e-05, cumulative = 0.00022045847
ExecutionTime = 1.878284 s  ClockTime = 2 s

Time = 9s

smoothSolver:  Solving for Ux, Initial residual = 0.047346654, Final residual = 0.0040395494, No Iterations 2
smoothSolver:  Solving for Uy, Initial residual = 0.28575117, Final residual = 0.021113459, No Iterations 2
smoothSolver:  Solving for Uz, Initial residual = 0.051015641, Final residual = 0.0016452982, No Iterations 3
GAMG:  Solving for p, Initial residual = 0.24263204, Final residual = 0.0010885896, No Iterations 6
time step continuity errors : sum local = 0.00053320149, global = -1.3585305e-05, cumulative = 0.00020687316
ExecutionTime = 2.065357 s  ClockTime = 2 s

Time = 10s

smoothSolver:  Solving for Ux, Initial residual = 0.065422225, Final residual = 0.0059939405, No Iterations 2
smoothSolver:  Solving for Uy, Initial residual = 0.37519721, Final residual = 0.025094635, No Iterations 2
smoothSolver:  Solving for Uz, Initial residual = 0.067562665, Final residual = 0.0023354451, No Iterations 3
GAMG:  Solving for p, Initial residual = 0.2751967, Final residual = 0.0020139905, No Iterations 4
time step continuity errors : sum local = 0.001412847, global = -2.4529656e-05, cumulative = 0.00018234351
ExecutionTime = 2.234392 s  ClockTime = 2 s

Time = 11s

smoothSolver:  Solving for Ux, Initial residual = 0.064003463, Final residual = 0.0062371908, No Iterations 2
smoothSolver:  Solving for Uy, Initial residual = 0.20269331, Final residual = 0.012323967, No Iterations 2
smoothSolver:  Solving for Uz, Initial residual = 0.091344784, Final residual = 0.0031745241, No Iterations 3
GAMG:  Solving for p, Initial residual = 0.20703224, Final residual = 0.0014943631, No Iterations 4
time step continuity errors : sum local = 0.0013929542, global = 7.0584186e-06, cumulative = 0.00018940193
ExecutionTime = 2.403416 s  ClockTime = 2 s

Time = 12s

smoothSolver:  Solving for Ux, Initial residual = 0.039040765, Final residual = 0.0012502772, No Iterations 3
smoothSolver:  Solving for Uy, Initial residual = 0.14689092, Final residual = 0.011577464, No Iterations 2
smoothSolver:  Solving for Uz, Initial residual = 0.057633166, Final residual = 0.0020086225, No Iterations 3
GAMG:  Solving for p, Initial residual = 0.15788199, Final residual = 0.0012091981, No Iterations 5
time step continuity errors : sum local = 0.00080149443, global = 3.6340453e-06, cumulative = 0.00019303597
ExecutionTime = 2.583741 s  ClockTime = 3 s

Time = 13s

smoothSolver:  Solving for Ux, Initial residual = 0.01889433, Final residual = 0.001566932, No Iterations 2
smoothSolver:  Solving for Uy, Initial residual = 0.31675717, Final residual = 0.025092672, No Iterations 2
smoothSolver:  Solving for Uz, Initial residual = 0.012523837, Final residual = 0.0011430466, No Iterations 2
GAMG:  Solving for p, Initial residual = 0.31754338, Final residual = 0.0030380967, No Iterations 5
time step continuity errors : sum local = 0.00059979005, global = -1.5804384e-06, cumulative = 0.00019145553
ExecutionTime = 2.759009 s  ClockTime = 3 s

Time = 14s

smoothSolver:  Solving for Ux, Initial residual = 0.029686936, Final residual = 0.0027520456, No Iterations 2
smoothSolver:  Solving for Uy, Initial residual = 0.30066099, Final residual = 0.021597928, No Iterations 2
smoothSolver:  Solving for Uz, Initial residual = 0.032306216, Final residual = 0.0010978334, No Iterations 3
GAMG:  Solving for p, Initial residual = 0.28028853, Final residual = 0.0016467917, No Iterations 4
time step continuity errors : sum local = 0.0005893912, global = 5.879397e-06, cumulative = 0.00019733493
ExecutionTime = 2.927188 s  ClockTime = 3 s

Time = 15s

smoothSolver:  Solving for Ux, Initial residual = 0.029349159, Final residual = 0.0028520699, No Iterations 2
smoothSolver:  Solving for Uy, Initial residual = 0.15787817, Final residual = 0.010366487, No Iterations 2
smoothSolver:  Solving for Uz, Initial residual = 0.040858699, Final residual = 0.0013974689, No Iterations 3
GAMG:  Solving for p, Initial residual = 0.215364, Final residual = 0.0018554225, No Iterations 4
time step continuity errors : sum local = 0.00075785275, global = -5.2384967e-06, cumulative = 0.00019209643
ExecutionTime = 3.095169 s  ClockTime = 3 s

Time = 16s

smoothSolver:  Solving for Ux, Initial residual = 0.018392566, Final residual = 0.0018381869, No Iterations 2
smoothSolver:  Solving for Uy, Initial residual = 0.14758802, Final residual = 0.012528323, No Iterations 2
smoothSolver:  Solving for Uz, Initial residual = 0.023673789, Final residual = 0.00080197934, No Iterations 3
GAMG:  Solving for p, Initial residual = 0.17198789, Final residual = 0.0014776905, No Iterations 5
time step continuity errors : sum local = 0.0003713567, global = -1.1895982e-06, cumulative = 0.00019090684
ExecutionTime = 3.273851 s  ClockTime = 3 s

Time = 17s

smoothSolver:  Solving for Ux, Initial residual = 0.010881345, Final residual = 0.00092366561, No Iterations 2
smoothSolver:  Solving for Uy, Initial residual = 0.25362208, Final residual = 0.020592332, No Iterations 2
smoothSolver:  Solving for Uz, Initial residual = 0.0069058053, Final residual = 0.00064541942, No Iterations 2
GAMG:  Solving for p, Initial residual = 0.31777887, Final residual = 0.0023145322, No Iterations 5
time step continuity errors : sum local = 0.00024514465, global = 6.0250482e-07, cumulative = 0.00019150934
ExecutionTime = 3.448837 s  ClockTime = 3 s

Time = 18s

smoothSolver:  Solving for Ux, Initial residual = 0.015520165, Final residual = 0.0014998208, No Iterations 2
smoothSolver:  Solving for Uy, Initial residual = 0.2008922, Final residual = 0.014833473, No Iterations 2
smoothSolver:  Solving for Uz, Initial residual = 0.018576698, Final residual = 0.0006523957, No Iterations 3
GAMG:  Solving for p, Initial residual = 0.20292191, Final residual = 0.0010091976, No Iterations 4
time step continuity errors : sum local = 0.00023719185, global = -2.7139506e-06, cumulative = 0.00018879539
ExecutionTime = 3.616006 s  ClockTime = 4 s

Time = 19s

smoothSolver:  Solving for Ux, Initial residual = 0.013137244, Final residual = 0.00041600065, No Iterations 3
smoothSolver:  Solving for Uy, Initial residual = 0.10769789, Final residual = 0.0077476728, No Iterations 2
smoothSolver:  Solving for Uz, Initial residual = 0.018414875, Final residual = 0.00064819016, No Iterations 3
GAMG:  Solving for p, Initial residual = 0.15759424, Final residual = 0.00067146549, No Iterations 5
time step continuity errors : sum local = 0.00015958513, global = 1.6249236e-06, cumulative = 0.00019042031
ExecutionTime = 3.792572 s  ClockTime = 4 s

Time = 20s

smoothSolver:  Solving for Ux, Initial residual = 0.0080964025, Final residual = 0.000259374, No Iterations 3
smoothSolver:  Solving for Uy, Initial residual = 0.12023036, Final residual = 0.010677811, No Iterations 2
smoothSolver:  Solving for Uz, Initial residual = 0.0089493239, Final residual = 0.00031153779, No Iterations 3
GAMG:  Solving for p, Initial residual = 0.10953232, Final residual = 0.0010847369, No Iterations 5
time step continuity errors : sum local = 0.00016843719, global = 9.0147112e-08, cumulative = 0.00019051046
ExecutionTime = 3.969209 s  ClockTime = 4 s

Time = 21s

smoothSolver:  Solving for Ux, Initial residual = 0.0059766924, Final residual = 0.00052143141, No Iterations 2
smoothSolver:  Solving for Uy, Initial residual = 0.15907826, Final residual = 0.013284637, No Iterations 2
smoothSolver:  Solving for Uz, Initial residual = 0.0042989287, Final residual = 0.00040097959, No Iterations 2
GAMG:  Solving for p, Initial residual = 0.29152995, Final residual = 0.0015508723, No Iterations 5
time step continuity errors : sum local = 9.7542675e-05, global = -3.7650707e-07, cumulative = 0.00019013395
ExecutionTime = 4.145822 s  ClockTime = 4 s

Time = 22s

smoothSolver:  Solving for Ux, Initial residual = 0.0069472205, Final residual = 0.00064732858, No Iterations 2
smoothSolver:  Solving for Uy, Initial residual = 0.11737839, Final residual = 0.009034484, No Iterations 2
smoothSolver:  Solving for Uz, Initial residual = 0.0084247386, Final residual = 0.0002790396, No Iterations 3
GAMG:  Solving for p, Initial residual = 0.20735617, Final residual = 0.0012769376, No Iterations 4
time step continuity errors : sum local = 0.00014077876, global = -8.9599211e-07, cumulative = 0.00018923796
ExecutionTime = 4.314844 s  ClockTime = 4 s

Time = 23s

smoothSolver:  Solving for Ux, Initial residual = 0.0054753228, Final residual = 0.00053006125, No Iterations 2
smoothSolver:  Solving for Uy, Initial residual = 0.066473166, Final residual = 0.0052676818, No Iterations 2
smoothSolver:  Solving for Uz, Initial residual = 0.00741211, Final residual = 0.00024522441, No Iterations 3
GAMG:  Solving for p, Initial residual = 0.16116633, Final residual = 0.00079151314, No Iterations 5
time step continuity errors : sum local = 8.0285735e-05, global = -6.3404205e-07, cumulative = 0.00018860392
ExecutionTime = 4.491618 s  ClockTime = 4 s

Time = 24s

smoothSolver:  Solving for Ux, Initial residual = 0.0036769904, Final residual = 0.00034633025, No Iterations 2
smoothSolver:  Solving for Uy, Initial residual = 0.079664893, Final residual = 0.007169558, No Iterations 2
smoothSolver:  Solving for Uz, Initial residual = 0.0032213352, Final residual = 0.00031777842, No Iterations 2
GAMG:  Solving for p, Initial residual = 0.13209594, Final residual = 0.0012488877, No Iterations 5
time step continuity errors : sum local = 7.3176824e-05, global = 5.0899134e-08, cumulative = 0.00018865482
ExecutionTime = 4.665665 s  ClockTime = 5 s

Time = 25s

smoothSolver:  Solving for Ux, Initial residual = 0.004036935, Final residual = 0.00039175165, No Iterations 2
smoothSolver:  Solving for Uy, Initial residual = 0.086543852, Final residual = 0.0073661122, No Iterations 2
smoothSolver:  Solving for Uz, Initial residual = 0.004029089, Final residual = 0.00013583863, No Iterations 3
GAMG:  Solving for p, Initial residual = 0.1046905, Final residual = 0.0010096497, No Iterations 4
time step continuity errors : sum local = 9.1646335e-05, global = -1.5861433e-06, cumulative = 0.00018706868
ExecutionTime = 4.832924 s  ClockTime = 5 s

Time = 26s

smoothSolver:  Solving for Ux, Initial residual = 0.0039967158, Final residual = 0.0001263726, No Iterations 3
smoothSolver:  Solving for Uy, Initial residual = 0.059721015, Final residual = 0.0048931217, No Iterations 2
smoothSolver:  Solving for Uz, Initial residual = 0.005022186, Final residual = 0.00017619774, No Iterations 3
GAMG:  Solving for p, Initial residual = 0.094989719, Final residual = 0.00073623823, No Iterations 4
time step continuity errors : sum local = 7.978791e-05, global = 3.4938318e-07, cumulative = 0.00018741806
ExecutionTime = 5.001992 s  ClockTime = 5 s

Time = 27s

smoothSolver:  Solving for Ux, Initial residual = 0.0033047161, Final residual = 0.00010889098, No Iterations 3
smoothSolver:  Solving for Uy, Initial residual = 0.040247115, Final residual = 0.0036641865, No Iterations 2
smoothSolver:  Solving for Uz, Initial residual = 0.0042615446, Final residual = 0.00014788203, No Iterations 3
GAMG:  Solving for p, Initial residual = 0.066029716, Final residual = 0.00038868823, No Iterations 5
time step continuity errors : sum local = 3.9456111e-05, global = 2.6288393e-07, cumulative = 0.00018768094
ExecutionTime = 5.180582 s  ClockTime = 5 s

Time = 28s

smoothSolver:  Solving for Ux, Initial residual = 0.0029079047, Final residual = 9.1429793e-05, No Iterations 3
smoothSolver:  Solving for Uy, Initial residual = 0.048063821, Final residual = 0.0044987734, No Iterations 2
smoothSolver:  Solving for Uz, Initial residual = 0.0030238452, Final residual = 9.9153734e-05, No Iterations 3
GAMG:  Solving for p, Initial residual = 0.04905313, Final residual = 0.00039752271, No Iterations 5
time step continuity errors : sum local = 3.224093e-05, global = -5.8421811e-08, cumulative = 0.00018762252
ExecutionTime = 5.361332 s  ClockTime = 5 s

Time = 29s

smoothSolver:  Solving for Ux, Initial residual = 0.0025861071, Final residual = 0.00025154843, No Iterations 2
smoothSolver:  Solving for Uy, Initial residual = 0.047400161, Final residual = 0.0042427793, No Iterations 2
smoothSolver:  Solving for Uz, Initial residual = 0.0024583522, Final residual = 7.6451838e-05, No Iterations 3
GAMG:  Solving for p, Initial residual = 0.083838955, Final residual = 0.00064435301, No Iterations 4
time step continuity errors : sum local = 4.1112654e-05, global = 5.1029194e-07, cumulative = 0.00018813281
ExecutionTime = 5.529761 s  ClockTime = 6 s

Time = 30s

smoothSolver:  Solving for Ux, Initial residual = 0.0022574443, Final residual = 0.0002205503, No Iterations 2
smoothSolver:  Solving for Uy, Initial residual = 0.033965074, Final residual = 0.0030484434, No Iterations 2
smoothSolver:  Solving for Uz, Initial residual = 0.0023746379, Final residual = 7.3749934e-05, No Iterations 3
GAMG:  Solving for p, Initial residual = 0.089280426, Final residual = 0.00067915771, No Iterations 4
time step continuity errors : sum local = 3.9538605e-05, global = -1.4151732e-07, cumulative = 0.0001879913
ExecutionTime = 5.698909 s  ClockTime = 6 s

Time = 31s

smoothSolver:  Solving for Ux, Initial residual = 0.002107336, Final residual = 6.5341378e-05, No Iterations 3
smoothSolver:  Solving for Uy, Initial residual = 0.027747252, Final residual = 0.0026849296, No Iterations 2
smoothSolver:  Solving for Uz, Initial residual = 0.0022885661, Final residual = 7.2661225e-05, No Iterations 3
GAMG:  Solving for p, Initial residual = 0.054777407, Final residual = 0.00028617599, No Iterations 5
time step continuity errors : sum local = 1.7905913e-05, global = -8.5318363e-08, cumulative = 0.00018790598
ExecutionTime = 5.876829 s  ClockTime = 6 s

Time = 32s

smoothSolver:  Solving for Ux, Initial residual = 0.0021928633, Final residual = 6.9543714e-05, No Iterations 3
smoothSolver:  Solving for Uy, Initial residual = 0.030467526, Final residual = 0.0029332078, No Iterations 2
smoothSolver:  Solving for Uz, Initial residual = 0.0024517299, Final residual = 8.0422352e-05, No Iterations 3
GAMG:  Solving for p, Initial residual = 0.034913192, Final residual = 0.00017986908, No Iterations 5
time step continuity errors : sum local = 1.2935689e-05, global = 4.5077882e-08, cumulative = 0.00018795106
ExecutionTime = 6.056872 s  ClockTime = 6 s

Time = 33s

smoothSolver:  Solving for Ux, Initial residual = 0.0022072723, Final residual = 7.1354748e-05, No Iterations 3
smoothSolver:  Solving for Uy, Initial residual = 0.028333724, Final residual = 0.0026975607, No Iterations 2
smoothSolver:  Solving for Uz, Initial residual = 0.002650268, Final residual = 8.8910624e-05, No Iterations 3
GAMG:  Solving for p, Initial residual = 0.036394054, Final residual = 0.00021689753, No Iterations 4
time step continuity errors : sum local = 1.7173256e-05, global = -2.1411124e-07, cumulative = 0.00018773694
ExecutionTime = 6.226739 s  ClockTime = 6 s

Time = 34s

smoothSolver:  Solving for Ux, Initial residual = 0.0020874663, Final residual = 6.883229e-05, No Iterations 3
smoothSolver:  Solving for Uy, Initial residual = 0.023084566, Final residual = 0.0022772183, No Iterations 2
smoothSolver:  Solving for Uz, Initial residual = 0.0026330669, Final residual = 8.867739e-05, No Iterations 3
GAMG:  Solving for p, Initial residual = 0.03202303, Final residual = 0.00026427379, No Iterations 4
time step continuity errors : sum local = 2.1326235e-05, global = 9.8267735e-08, cumulative = 0.00018783521
ExecutionTime = 6.396189 s  ClockTime = 6 s

Time = 35s

smoothSolver:  Solving for Ux, Initial residual = 0.0019791033, Final residual = 6.5377706e-05, No Iterations 3
smoothSolver:  Solving for Uy, Initial residual = 0.021641263, Final residual = 0.00068402171, No Iterations 3
smoothSolver:  Solving for Uz, Initial residual = 0.0024443575, Final residual = 8.161836e-05, No Iterations 3
GAMG:  Solving for p, Initial residual = 0.024819285, Final residual = 0.00011606923, No Iterations 5
time step continuity errors : sum local = 9.0305031e-06, global = 4.33095e-08, cumulative = 0.00018787852
ExecutionTime = 6.576983 s  ClockTime = 7 s

Time = 36s

smoothSolver:  Solving for Ux, Initial residual = 0.0019051222, Final residual = 6.200549e-05, No Iterations 3
smoothSolver:  Solving for Uy, Initial residual = 0.021908035, Final residual = 0.00068341406, No Iterations 3
smoothSolver:  Solving for Uz, Initial residual = 0.0022371259, Final residual = 7.372518e-05, No Iterations 3
GAMG:  Solving for p, Initial residual = 0.025791697, Final residual = 0.00020349408, No Iterations 4
time step continuity errors : sum local = 1.4941229e-05, global = 2.3105149e-07, cumulative = 0.00018810957
ExecutionTime = 6.748443 s  ClockTime = 7 s

Time = 37s

smoothSolver:  Solving for Ux, Initial residual = 0.0018236665, Final residual = 5.9055957e-05, No Iterations 3
smoothSolver:  Solving for Uy, Initial residual = 0.020198763, Final residual = 0.00063023564, No Iterations 3
smoothSolver:  Solving for Uz, Initial residual = 0.0021195284, Final residual = 6.9404817e-05, No Iterations 3
GAMG:  Solving for p, Initial residual = 0.028820326, Final residual = 0.00014146457, No Iterations 4
time step continuity errors : sum local = 1.0001702e-05, global = 1.5631557e-07, cumulative = 0.00018826589
ExecutionTime = 6.919291 s  ClockTime = 7 s

Time = 38s

smoothSolver:  Solving for Ux, Initial residual = 0.0017587786, Final residual = 5.7379929e-05, No Iterations 3
smoothSolver:  Solving for Uy, Initial residual = 0.018182983, Final residual = 0.00058096474, No Iterations 3
smoothSolver:  Solving for Uz, Initial residual = 0.0020727387, Final residual = 6.80479e-05, No Iterations 3
GAMG:  Solving for p, Initial residual = 0.026182317, Final residual = 0.00015539794, No Iterations 4
time step continuity errors : sum local = 1.0967203e-05, global = -6.2898913e-08, cumulative = 0.00018820299
ExecutionTime = 7.089099 s  ClockTime = 7 s

Time = 39s

smoothSolver:  Solving for Ux, Initial residual = 0.0017347359, Final residual = 5.7058213e-05, No Iterations 3
smoothSolver:  Solving for Uy, Initial residual = 0.017705903, Final residual = 0.00057130301, No Iterations 3
smoothSolver:  Solving for Uz, Initial residual = 0.0020643598, Final residual = 6.8298427e-05, No Iterations 3
GAMG:  Solving for p, Initial residual = 0.021848704, Final residual = 0.00014076145, No Iterations 4
time step continuity errors : sum local = 1.0160835e-05, global = -1.0870043e-07, cumulative = 0.00018809429
ExecutionTime = 7.258882 s  ClockTime = 7 s

Time = 40s

smoothSolver:  Solving for Ux, Initial residual = 0.0017196981, Final residual = 5.6921908e-05, No Iterations 3
smoothSolver:  Solving for Uy, Initial residual = 0.017501414, Final residual = 0.00056336409, No Iterations 3
smoothSolver:  Solving for Uz, Initial residual = 0.0020690117, Final residual = 6.9029548e-05, No Iterations 3
GAMG:  Solving for p, Initial residual = 0.020184514, Final residual = 0.00010789586, No Iterations 4
time step continuity errors : sum local = 8.0039728e-06, global = -7.0658516e-08, cumulative = 0.00018802363
ExecutionTime = 7.43263 s  ClockTime = 7 s

Time = 41s

smoothSolver:  Solving for Ux, Initial residual = 0.0016895405, Final residual = 5.6236828e-05, No Iterations 3
smoothSolver:  Solving for Uy, Initial residual = 0.016764823, Final residual = 0.00054300973, No Iterations 3
smoothSolver:  Solving for Uz, Initial residual = 0.0020546021, Final residual = 6.8880741e-05, No Iterations 3
GAMG:  Solving for p, Initial residual = 0.019626277, Final residual = 0.00010093402, No Iterations 4
time step continuity errors : sum local = 7.6049861e-06, global = 6.5512196e-08, cumulative = 0.00018808914
ExecutionTime = 7.605754 s  ClockTime = 8 s

Time = 42s

smoothSolver:  Solving for Ux, Initial residual = 0.0016537674, Final residual = 5.5204252e-05, No Iterations 3
smoothSolver:  Solving for Uy, Initial residual = 0.016066491, Final residual = 0.00052563397, No Iterations 3
smoothSolver:  Solving for Uz, Initial residual = 0.0020111911, Final residual = 6.7472984e-05, No Iterations 3
GAMG:  Solving for p, Initial residual = 0.018616703, Final residual = 0.00011124335, No Iterations 4
time step continuity errors : sum local = 8.3891354e-06, global = 5.2078072e-08, cumulative = 0.00018814122
ExecutionTime = 7.779274 s  ClockTime = 8 s

Time = 43s

smoothSolver:  Solving for Ux, Initial residual = 0.001621256, Final residual = 5.4066585e-05, No Iterations 3
smoothSolver:  Solving for Uy, Initial residual = 0.0156802, Final residual = 0.00051481156, No Iterations 3
smoothSolver:  Solving for Uz, Initial residual = 0.001950147, Final residual = 6.5288584e-05, No Iterations 3
GAMG:  Solving for p, Initial residual = 0.018096076, Final residual = 0.00010679396, No Iterations 4
time step continuity errors : sum local = 7.9761319e-06, global = 5.8060375e-08, cumulative = 0.00018819928
ExecutionTime = 7.954875 s  ClockTime = 8 s

Time = 44s

smoothSolver:  Solving for Ux, Initial residual = 0.0015908997, Final residual = 5.2960394e-05, No Iterations 3
smoothSolver:  Solving for Uy, Initial residual = 0.015279032, Final residual = 0.00050168579, No Iterations 3
smoothSolver:  Solving for Uz, Initial residual = 0.0018934962, Final residual = 6.3266037e-05, No Iterations 3
GAMG:  Solving for p, Initial residual = 0.018335534, Final residual = 9.8164079e-05, No Iterations 4
time step continuity errors : sum local = 7.2538752e-06, global = 6.131082e-08, cumulative = 0.00018826059
ExecutionTime = 8.135345 s  ClockTime = 8 s

Time = 45s

smoothSolver:  Solving for Ux, Initial residual = 0.0015622977, Final residual = 5.2020443e-05, No Iterations 3
smoothSolver:  Solving for Uy, Initial residual = 0.014764681, Final residual = 0.00048616648, No Iterations 3
smoothSolver:  Solving for Uz, Initial residual = 0.0018507452, Final residual = 6.1835717e-05, No Iterations 3
GAMG:  Solving for p, Initial residual = 0.018213884, Final residual = 0.00012047416, No Iterations 3
time step continuity errors : sum local = 8.8619564e-06, global = 1.8652966e-07, cumulative = 0.00018844712
ExecutionTime = 8.299559 s  ClockTime = 8 s

Time = 46s

smoothSolver:  Solving for Ux, Initial residual = 0.001538462, Final residual = 5.1320918e-05, No Iterations 3
smoothSolver:  Solving for Uy, Initial residual = 0.014331212, Final residual = 0.00047352953, No Iterations 3
smoothSolver:  Solving for Uz, Initial residual = 0.0018199417, Final residual = 6.0926374e-05, No Iterations 3
GAMG:  Solving for p, Initial residual = 0.017472215, Final residual = 0.00016335156, No Iterations 3
time step continuity errors : sum local = 1.2050795e-05, global = -4.3209023e-08, cumulative = 0.00018840391
ExecutionTime = 8.460402 s  ClockTime = 8 s

Time = 47s

smoothSolver:  Solving for Ux, Initial residual = 0.001518848, Final residual = 5.0753812e-05, No Iterations 3
smoothSolver:  Solving for Uy, Initial residual = 0.014018174, Final residual = 0.00046395701, No Iterations 3
smoothSolver:  Solving for Uz, Initial residual = 0.0017936039, Final residual = 6.0187455e-05, No Iterations 3
GAMG:  Solving for p, Initial residual = 0.01680917, Final residual = 8.2375034e-05, No Iterations 4
time step continuity errors : sum local = 6.1082318e-06, global = -2.9866199e-08, cumulative = 0.00018837405
ExecutionTime = 8.632106 s  ClockTime = 9 s

Time = 48s

smoothSolver:  Solving for Ux, Initial residual = 0.0015013505, Final residual = 5.0262209e-05, No Iterations 3
smoothSolver:  Solving for Uy, Initial residual = 0.013722497, Final residual = 0.00045477393, No Iterations 3
smoothSolver:  Solving for Uz, Initial residual = 0.001770007, Final residual = 5.9553137e-05, No Iterations 3
GAMG:  Solving for p, Initial residual = 0.016300571, Final residual = 0.00010152466, No Iterations 3
time step continuity errors : sum local = 7.5773259e-06, global = 3.2380105e-09, cumulative = 0.00018837728
ExecutionTime = 8.792114 s  ClockTime = 9 s

Time = 49s

smoothSolver:  Solving for Ux, Initial residual = 0.001482269, Final residual = 4.9694135e-05, No Iterations 3
smoothSolver:  Solving for Uy, Initial residual = 0.013401757, Final residual = 0.00044519045, No Iterations 3
smoothSolver:  Solving for Uz, Initial residual = 0.0017431291, Final residual = 5.8748918e-05, No Iterations 3
GAMG:  Solving for p, Initial residual = 0.015923325, Final residual = 0.00013597049, No Iterations 3
time step continuity errors : sum local = 1.0185764e-05, global = 1.7795951e-07, cumulative = 0.00018855524
ExecutionTime = 8.952707 s  ClockTime = 9 s

Time = 50s

smoothSolver:  Solving for Ux, Initial residual = 0.001464582, Final residual = 4.9150578e-05, No Iterations 3
smoothSolver:  Solving for Uy, Initial residual = 0.013106391, Final residual = 0.00043633621, No Iterations 3
smoothSolver:  Solving for Uz, Initial residual = 0.0017149752, Final residual = 5.7870891e-05, No Iterations 3
GAMG:  Solving for p, Initial residual = 0.01559511, Final residual = 9.3044541e-05, No Iterations 4
time step continuity errors : sum local = 6.9856763e-06, global = 7.6614932e-08, cumulative = 0.00018863186
ExecutionTime = 9.122933 s  ClockTime = 9 s

Time = 51s

smoothSolver:  Solving for Ux, Initial residual = 0.0014479579, Final residual = 4.8592197e-05, No Iterations 3
smoothSolver:  Solving for Uy, Initial residual = 0.012844391, Final residual = 0.00042836301, No Iterations 3
smoothSolver:  Solving for Uz, Initial residual = 0.0016833699, Final residual = 5.6811881e-05, No Iterations 3
GAMG:  Solving for p, Initial residual = 0.015416024, Final residual = 8.9722979e-05, No Iterations 4
time step continuity errors : sum local = 6.7287081e-06, global = 6.7723803e-08, cumulative = 0.00018869958
ExecutionTime = 9.292674 s  ClockTime = 9 s

Time = 52s

smoothSolver:  Solving for Ux, Initial residual = 0.0014315279, Final residual = 4.8033469e-05, No Iterations 3
smoothSolver:  Solving for Uy, Initial residual = 0.012583517, Final residual = 0.00042022124, No Iterations 3
smoothSolver:  Solving for Uz, Initial residual = 0.0016524388, Final residual = 5.5775731e-05, No Iterations 3
GAMG:  Solving for p, Initial residual = 0.015290188, Final residual = 8.3480188e-05, No Iterations 4
time step continuity errors : sum local = 6.2502035e-06, global = 6.6499468e-08, cumulative = 0.00018876608
ExecutionTime = 9.463815 s  ClockTime = 9 s

Time = 53s

smoothSolver:  Solving for Ux, Initial residual = 0.0014156341, Final residual = 4.7509133e-05, No Iterations 3
smoothSolver:  Solving for Uy, Initial residual = 0.01232012, Final residual = 0.00041204265, No Iterations 3
smoothSolver:  Solving for Uz, Initial residual = 0.0016243046, Final residual = 5.4859504e-05, No Iterations 3
GAMG:  Solving for p, Initial residual = 0.015088448, Final residual = 0.00011482825, No Iterations 3
time step continuity errors : sum local = 8.5944899e-06, global = 1.4100399e-07, cumulative = 0.00018890709
ExecutionTime = 9.625641 s  ClockTime = 10 s

Time = 54s

smoothSolver:  Solving for Ux, Initial residual = 0.0014002094, Final residual = 4.7024312e-05, No Iterations 3
smoothSolver:  Solving for Uy, Initial residual = 0.012061994, Final residual = 0.00040411349, No Iterations 3
smoothSolver:  Solving for Uz, Initial residual = 0.0015996646, Final residual = 5.4098888e-05, No Iterations 3
GAMG:  Solving for p, Initial residual = 0.014770812, Final residual = 9.9454938e-05, No Iterations 3
time step continuity errors : sum local = 7.4587131e-06, global = 1.3596188e-07, cumulative = 0.00018904305
ExecutionTime = 9.78775 s  ClockTime = 10 s

Time = 55s

smoothSolver:  Solving for Ux, Initial residual = 0.0013863623, Final residual = 4.6590203e-05, No Iterations 3
smoothSolver:  Solving for Uy, Initial residual = 0.011824907, Final residual = 0.00039673742, No Iterations 3
smoothSolver:  Solving for Uz, Initial residual = 0.0015761874, Final residual = 5.3373792e-05, No Iterations 3
GAMG:  Solving for p, Initial residual = 0.014483156, Final residual = 0.00011065043, No Iterations 3
time step continuity errors : sum local = 8.3183449e-06, global = 1.5257902e-07, cumulative = 0.00018919563
ExecutionTime = 9.949083 s  ClockTime = 10 s

Time = 56s

smoothSolver:  Solving for Ux, Initial residual = 0.0013742276, Final residual = 4.6209734e-05, No Iterations 3
smoothSolver:  Solving for Uy, Initial residual = 0.011605673, Final residual = 0.00038992445, No Iterations 3
smoothSolver:  Solving for Uz, Initial residual = 0.0015531953, Final residual = 5.2656956e-05, No Iterations 3
GAMG:  Solving for p, Initial residual = 0.01424405, Final residual = 0.00013583933, No Iterations 3
time step continuity errors : sum local = 1.0235511e-05, global = 1.7656338e-07, cumulative = 0.00018937219
ExecutionTime = 10.111283 s  ClockTime = 10 s

Time = 57s

smoothSolver:  Solving for Ux, Initial residual = 0.0013634041, Final residual = 4.5866064e-05, No Iterations 3
smoothSolver:  Solving for Uy, Initial residual = 0.011401118, Final residual = 0.00038354129, No Iterations 3
smoothSolver:  Solving for Uz, Initial residual = 0.0015304465, Final residual = 5.1936351e-05, No Iterations 3
GAMG:  Solving for p, Initial residual = 0.014042843, Final residual = 8.3894511e-05, No Iterations 4
time step continuity errors : sum local = 6.3331733e-06, global = 7.9158351e-08, cumulative = 0.00018945135
ExecutionTime = 10.282179 s  ClockTime = 10 s

Time = 58s

smoothSolver:  Solving for Ux, Initial residual = 0.0013536411, Final residual = 4.5540213e-05, No Iterations 3
smoothSolver:  Solving for Uy, Initial residual = 0.011210852, Final residual = 0.00037754594, No Iterations 3
smoothSolver:  Solving for Uz, Initial residual = 0.0015073797, Final residual = 5.1181406e-05, No Iterations 3
GAMG:  Solving for p, Initial residual = 0.013901909, Final residual = 7.9629763e-05, No Iterations 4
time step continuity errors : sum local = 6.015347e-06, global = 7.2847833e-08, cumulative = 0.0001895242
ExecutionTime = 10.458773 s  ClockTime = 10 s

Time = 59s

smoothSolver:  Solving for Ux, Initial residual = 0.0013430282, Final residual = 4.5184011e-05, No Iterations 3
smoothSolver:  Solving for Uy, Initial residual = 0.011018529, Final residual = 0.00037140172, No Iterations 3
smoothSolver:  Solving for Uz, Initial residual = 0.0014849416, Final residual = 5.0450499e-05, No Iterations 3
GAMG:  Solving for p, Initial residual = 0.013739981, Final residual = 0.00012454071, No Iterations 3
time step continuity errors : sum local = 9.4143226e-06, global = 1.457713e-07, cumulative = 0.00018966997
ExecutionTime = 10.621034 s  ClockTime = 11 s

Time = 60s

smoothSolver:  Solving for Ux, Initial residual = 0.001331137, Final residual = 4.4792506e-05, No Iterations 3
smoothSolver:  Solving for Uy, Initial residual = 0.01081921, Final residual = 0.00036500236, No Iterations 3
smoothSolver:  Solving for Uz, Initial residual = 0.0014639572, Final residual = 4.9786412e-05, No Iterations 3
GAMG:  Solving for p, Initial residual = 0.013524295, Final residual = 0.00012313604, No Iterations 3
time step continuity errors : sum local = 9.3226751e-06, global = 1.3741881e-07, cumulative = 0.00018980739
ExecutionTime = 10.783894 s  ClockTime = 11 s

Time = 61s

smoothSolver:  Solving for Ux, Initial residual = 0.0013199603, Final residual = 4.4419897e-05, No Iterations 3
smoothSolver:  Solving for Uy, Initial residual = 0.010628405, Final residual = 0.00035884701, No Iterations 3
smoothSolver:  Solving for Uz, Initial residual = 0.0014433984, Final residual = 4.9133255e-05, No Iterations 3
GAMG:  Solving for p, Initial residual = 0.013325383, Final residual = 0.00013032213, No Iterations 3
time step continuity errors : sum local = 9.8821287e-06, global = 1.384891e-07, cumulative = 0.00018994588
ExecutionTime = 10.94525 s  ClockTime = 11 s

Time = 62s

smoothSolver:  Solving for Ux, Initial residual = 0.0013100686, Final residual = 4.4087184e-05, No Iterations 3
smoothSolver:  Solving for Uy, Initial residual = 0.010449167, Final residual = 0.00035306698, No Iterations 3
smoothSolver:  Solving for Uz, Initial residual = 0.0014231142, Final residual = 4.8484785e-05, No Iterations 3
GAMG:  Solving for p, Initial residual = 0.013147044, Final residual = 7.7318842e-05, No Iterations 4
time step continuity errors : sum local = 5.8713784e-06, global = 6.0096589e-08, cumulative = 0.00019000597
ExecutionTime = 11.116878 s  ClockTime = 11 s

Time = 63s

smoothSolver:  Solving for Ux, Initial residual = 0.0013021725, Final residual = 4.3812468e-05, No Iterations 3
smoothSolver:  Solving for Uy, Initial residual = 0.010283816, Final residual = 0.00034772668, No Iterations 3
smoothSolver:  Solving for Uz, Initial residual = 0.0014026754, Final residual = 4.7814154e-05, No Iterations 3
GAMG:  Solving for p, Initial residual = 0.013014255, Final residual = 0.00012148188, No Iterations 3
time step continuity errors : sum local = 9.2319464e-06, global = 1.4188003e-07, cumulative = 0.00019014785
ExecutionTime = 11.278445 s  ClockTime = 11 s

Time = 64s

smoothSolver:  Solving for Ux, Initial residual = 0.001293481, Final residual = 4.3523187e-05, No Iterations 3
smoothSolver:  Solving for Uy, Initial residual = 0.010117323, Final residual = 0.00034233237, No Iterations 3
smoothSolver:  Solving for Uz, Initial residual = 0.001383578, Final residual = 4.7204743e-05, No Iterations 3
GAMG:  Solving for p, Initial residual = 0.012833615, Final residual = 0.00012295563, No Iterations 3
time step continuity errors : sum local = 9.3586723e-06, global = 1.4579028e-07, cumulative = 0.00019029364
ExecutionTime = 11.440975 s  ClockTime = 11 s

Time = 65s

smoothSolver:  Solving for Ux, Initial residual = 0.001285227, Final residual = 4.3248342e-05, No Iterations 3
smoothSolver:  Solving for Uy, Initial residual = 0.0099548182, Final residual = 0.00033707652, No Iterations 3
smoothSolver:  Solving for Uz, Initial residual = 0.0013650504, Final residual = 4.6610729e-05, No Iterations 3
GAMG:  Solving for p, Initial residual = 0.01265382, Final residual = 7.2392388e-05, No Iterations 4
time step continuity errors : sum local = 5.518709e-06, global = 6.3173709e-08, cumulative = 0.00019035682
ExecutionTime = 11.613299 s  ClockTime = 12 s

Time = 66s

smoothSolver:  Solving for Ux, Initial residual = 0.0012781006, Final residual = 4.300567e-05, No Iterations 3
smoothSolver:  Solving for Uy, Initial residual = 0.0097996808, Final residual = 0.00033204392, No Iterations 3
smoothSolver:  Solving for Uz, Initial residual = 0.0013466289, Final residual = 4.6007724e-05, No Iterations 3
GAMG:  Solving for p, Initial residual = 0.012507444, Final residual = 0.00010954248, No Iterations 3
time step continuity errors : sum local = 8.3592589e-06, global = 1.4512844e-07, cumulative = 0.00019050194
ExecutionTime = 11.775352 s  ClockTime = 12 s

Time = 67s

smoothSolver:  Solving for Ux, Initial residual = 0.0012695845, Final residual = 4.2727958e-05, No Iterations 3
smoothSolver:  Solving for Uy, Initial residual = 0.0096393403, Final residual = 0.00032690391, No Iterations 3
smoothSolver:  Solving for Uz, Initial residual = 0.001329145, Final residual = 4.5450502e-05, No Iterations 3
GAMG:  Solving for p, Initial residual = 0.012320925, Final residual = 0.00011185922, No Iterations 3
time step continuity errors : sum local = 8.5501171e-06, global = 1.460441e-07, cumulative = 0.00019064799
ExecutionTime = 11.935009 s  ClockTime = 12 s

Time = 68s

smoothSolver:  Solving for Ux, Initial residual = 0.0012615163, Final residual = 4.2463768e-05, No Iterations 3
smoothSolver:  Solving for Uy, Initial residual = 0.0094834233, Final residual = 0.00032191993, No Iterations 3
smoothSolver:  Solving for Uz, Initial residual = 0.0013119417, Final residual = 4.4898347e-05, No Iterations 3
GAMG:  Solving for p, Initial residual = 0.012149267, Final residual = 0.00011989561, No Iterations 3
time step continuity errors : sum local = 9.1786253e-06, global = 1.4589818e-07, cumulative = 0.00019079389
ExecutionTime = 12.096455 s  ClockTime = 12 s

Time = 69s

smoothSolver:  Solving for Ux, Initial residual = 0.0012540927, Final residual = 4.2219136e-05, No Iterations 3
smoothSolver:  Solving for Uy, Initial residual = 0.0093323676, Final residual = 0.00031711727, No Iterations 3
smoothSolver:  Solving for Uz, Initial residual = 0.0012949128, Final residual = 4.4345913e-05, No Iterations 3
GAMG:  Solving for p, Initial residual = 0.012002274, Final residual = 7.1807588e-05, No Iterations 4
time step continuity errors : sum local = 5.5047776e-06, global = 6.1210759e-08, cumulative = 0.0001908551
ExecutionTime = 12.267495 s  ClockTime = 12 s

Time = 70s

smoothSolver:  Solving for Ux, Initial residual = 0.0012479826, Final residual = 4.2011186e-05, No Iterations 3
smoothSolver:  Solving for Uy, Initial residual = 0.0091896727, Final residual = 0.00031253455, No Iterations 3
smoothSolver:  Solving for Uz, Initial residual = 0.0012777521, Final residual = 4.3775008e-05, No Iterations 3
GAMG:  Solving for p, Initial residual = 0.011907606, Final residual = 0.00010840354, No Iterations 3
time step continuity errors : sum local = 8.3162962e-06, global = 1.3272224e-07, cumulative = 0.00019098782
ExecutionTime = 12.429184 s  ClockTime = 12 s

Time = 71s

smoothSolver:  Solving for Ux, Initial residual = 0.0012406249, Final residual = 4.1772271e-05, No Iterations 3
smoothSolver:  Solving for Uy, Initial residual = 0.0090459869, Final residual = 0.00030787981, No Iterations 3
smoothSolver:  Solving for Uz, Initial residual = 0.0012616358, Final residual = 4.3253373e-05, No Iterations 3
GAMG:  Solving for p, Initial residual = 0.011769204, Final residual = 0.0001074453, No Iterations 3
time step continuity errors : sum local = 8.2548156e-06, global = 1.2848504e-07, cumulative = 0.00019111631
ExecutionTime = 12.59113 s  ClockTime = 13 s

Time = 72s

smoothSolver:  Solving for Ux, Initial residual = 0.0012336236, Final residual = 4.1546634e-05, No Iterations 3
smoothSolver:  Solving for Uy, Initial residual = 0.0089077547, Final residual = 0.00030337509, No Iterations 3
smoothSolver:  Solving for Uz, Initial residual = 0.001245965, Final residual = 4.2743857e-05, No Iterations 3
GAMG:  Solving for p, Initial residual = 0.011633591, Final residual = 0.00011166562, No Iterations 3
time step continuity errors : sum local = 8.5916659e-06, global = 1.2811596e-07, cumulative = 0.00019124442
ExecutionTime = 12.752768 s  ClockTime = 13 s

Time = 73s

smoothSolver:  Solving for Ux, Initial residual = 0.0012271546, Final residual = 4.1341809e-05, No Iterations 3
smoothSolver:  Solving for Uy, Initial residual = 0.0087744969, Final residual = 0.00029904594, No Iterations 3
smoothSolver:  Solving for Uz, Initial residual = 0.001230624, Final residual = 4.2243599e-05, No Iterations 3
GAMG:  Solving for p, Initial residual = 0.011501622, Final residual = 6.7786792e-05, No Iterations 4
time step continuity errors : sum local = 5.2228112e-06, global = 5.5000791e-08, cumulative = 0.00019129942
ExecutionTime = 12.922281 s  ClockTime = 13 s

Time = 74s

smoothSolver:  Solving for Ux, Initial residual = 0.0012219114, Final residual = 4.117413e-05, No Iterations 3
smoothSolver:  Solving for Uy, Initial residual = 0.0086479151, Final residual = 0.00029490175, No Iterations 3
smoothSolver:  Solving for Uz, Initial residual = 0.0012152878, Final residual = 4.1732474e-05, No Iterations 3
GAMG:  Solving for p, Initial residual = 0.011398537, Final residual = 0.00010099288, No Iterations 3
time step continuity errors : sum local = 7.7880014e-06, global = 1.2480447e-07, cumulative = 0.00019142423
ExecutionTime = 13.084045 s  ClockTime = 13 s

Time = 75s

smoothSolver:  Solving for Ux, Initial residual = 0.00121523, Final residual = 4.0968794e-05, No Iterations 3
smoothSolver:  Solving for Uy, Initial residual = 0.0085180076, Final residual = 0.00029065663, No Iterations 3
smoothSolver:  Solving for Uz, Initial residual = 0.0012007447, Final residual = 4.1262587e-05, No Iterations 3
GAMG:  Solving for p, Initial residual = 0.011256661, Final residual = 0.00010175542, No Iterations 3
time step continuity errors : sum local = 7.8585804e-06, global = 1.2737498e-07, cumulative = 0.0001915516
ExecutionTime = 13.245635 s  ClockTime = 13 s

Time = 76s

smoothSolver:  Solving for Ux, Initial residual = 0.0012088807, Final residual = 4.0773268e-05, No Iterations 3
smoothSolver:  Solving for Uy, Initial residual = 0.00838918, Final residual = 0.00028645395, No Iterations 3
smoothSolver:  Solving for Uz, Initial residual = 0.0011864195, Final residual = 4.0797483e-05, No Iterations 3
GAMG:  Solving for p, Initial residual = 0.011128333, Final residual = 0.00010731947, No Iterations 3
time step continuity errors : sum local = 8.300548e-06, global = 1.3201422e-07, cumulative = 0.00019168362
ExecutionTime = 13.407596 s  ClockTime = 13 s

Time = 77s

smoothSolver:  Solving for Ux, Initial residual = 0.0012030156, Final residual = 4.0594438e-05, No Iterations 3
smoothSolver:  Solving for Uy, Initial residual = 0.0082623101, Final residual = 0.00028232458, No Iterations 3
smoothSolver:  Solving for Uz, Initial residual = 0.0011722742, Final residual = 4.0333987e-05, No Iterations 3
GAMG:  Solving for p, Initial residual = 0.011015955, Final residual = 6.6688156e-05, No Iterations 4
time step continuity errors : sum local = 5.1649791e-06, global = 5.7362657e-08, cumulative = 0.00019174098
ExecutionTime = 13.57777 s  ClockTime = 14 s

Time = 78s

smoothSolver:  Solving for Ux, Initial residual = 0.0011983577, Final residual = 4.0450555e-05, No Iterations 3
smoothSolver:  Solving for Uy, Initial residual = 0.0081401028, Final residual = 0.0002783289, No Iterations 3
smoothSolver:  Solving for Uz, Initial residual = 0.0011581064, Final residual = 3.9858275e-05, No Iterations 3
GAMG:  Solving for p, Initial residual = 0.010941053, Final residual = 9.8343638e-05, No Iterations 3
time step continuity errors : sum local = 7.6229617e-06, global = 1.2554382e-07, cumulative = 0.00019186652
ExecutionTime = 13.740589 s  ClockTime = 14 s

Time = 79s

smoothSolver:  Solving for Ux, Initial residual = 0.0011921965, Final residual = 4.0268203e-05, No Iterations 3
smoothSolver:  Solving for Uy, Initial residual = 0.0080163142, Final residual = 0.00027431267, No Iterations 3
smoothSolver:  Solving for Uz, Initial residual = 0.0011446912, Final residual = 3.9422127e-05, No Iterations 3
GAMG:  Solving for p, Initial residual = 0.010823694, Final residual = 9.8482937e-05, No Iterations 3
time step continuity errors : sum local = 7.6446028e-06, global = 1.2343701e-07, cumulative = 0.00019198996
ExecutionTime = 13.902049 s  ClockTime = 14 s

Time = 80s

smoothSolver:  Solving for Ux, Initial residual = 0.0011862901, Final residual = 4.0093312e-05, No Iterations 3
smoothSolver:  Solving for Uy, Initial residual = 0.0078967997, Final residual = 0.00027043325, No Iterations 3
smoothSolver:  Solving for Uz, Initial residual = 0.0011316005, Final residual = 3.8994116e-05, No Iterations 3
GAMG:  Solving for p, Initial residual = 0.010708107, Final residual = 0.00010273834, No Iterations 3
time step continuity errors : sum local = 7.9861362e-06, global = 1.2355459e-07, cumulative = 0.00019211351
ExecutionTime = 14.063133 s  ClockTime = 14 s

Time = 81s

smoothSolver:  Solving for Ux, Initial residual = 0.0011808731, Final residual = 3.9933306e-05, No Iterations 3
smoothSolver:  Solving for Uy, Initial residual = 0.0077826081, Final residual = 0.00026669764, No Iterations 3
smoothSolver:  Solving for Uz, Initial residual = 0.0011187165, Final residual = 3.8569447e-05, No Iterations 3
GAMG:  Solving for p, Initial residual = 0.010597681, Final residual = 6.3146827e-05, No Iterations 4
time step continuity errors : sum local = 4.9150547e-06, global = 5.2596653e-08, cumulative = 0.00019216611
ExecutionTime = 14.232644 s  ClockTime = 14 s

Time = 82s

smoothSolver:  Solving for Ux, Initial residual = 0.0011766687, Final residual = 3.9810127e-05, No Iterations 3
smoothSolver:  Solving for Uy, Initial residual = 0.0076747927, Final residual = 0.00026313504, No Iterations 3
smoothSolver:  Solving for Uz, Initial residual = 0.0011058715, Final residual = 3.8133747e-05, No Iterations 3
GAMG:  Solving for p, Initial residual = 0.010516963, Final residual = 9.3056374e-05, No Iterations 3
time step continuity errors : sum local = 7.2491772e-06, global = 1.1230981e-07, cumulative = 0.00019227842
ExecutionTime = 14.394872 s  ClockTime = 14 s

Time = 83s

smoothSolver:  Solving for Ux, Initial residual = 0.0011709751, Final residual = 3.9645439e-05, No Iterations 3
smoothSolver:  Solving for Uy, Initial residual = 0.0075655585, Final residual = 0.00025950137, No Iterations 3
smoothSolver:  Solving for Uz, Initial residual = 0.0010935783, Final residual = 3.7729973e-05, No Iterations 3
GAMG:  Solving for p, Initial residual = 0.010396143, Final residual = 9.2708962e-05, No Iterations 3
time step continuity errors : sum local = 7.2322512e-06, global = 1.104295e-07, cumulative = 0.00019238885
ExecutionTime = 14.555444 s  ClockTime = 15 s

Time = 84s

smoothSolver:  Solving for Ux, Initial residual = 0.0011655022, Final residual = 3.9487822e-05, No Iterations 3
smoothSolver:  Solving for Uy, Initial residual = 0.0074574759, Final residual = 0.00025588314, No Iterations 3
smoothSolver:  Solving for Uz, Initial residual = 0.0010814791, Final residual = 3.7330882e-05, No Iterations 3
GAMG:  Solving for p, Initial residual = 0.010288458, Final residual = 9.6405511e-05, No Iterations 3
time step continuity errors : sum local = 7.5311195e-06, global = 1.1280283e-07, cumulative = 0.00019250165
ExecutionTime = 14.717796 s  ClockTime = 15 s

Time = 85s

smoothSolver:  Solving for Ux, Initial residual = 0.0011604293, Final residual = 3.9343896e-05, No Iterations 3
smoothSolver:  Solving for Uy, Initial residual = 0.0073512156, Final residual = 0.00025229687, No Iterations 3
smoothSolver:  Solving for Uz, Initial residual = 0.001069517, Final residual = 3.69345e-05, No Iterations 3
GAMG:  Solving for p, Initial residual = 0.010193845, Final residual = 0.0001008438, No Iterations 3
time step continuity errors : sum local = 7.8882594e-06, global = 1.1566763e-07, cumulative = 0.00019261732
ExecutionTime = 14.878653 s  ClockTime = 15 s

Time = 86s

smoothSolver:  Solving for Ux, Initial residual = 0.0011556906, Final residual = 3.9208975e-05, No Iterations 3
smoothSolver:  Solving for Uy, Initial residual = 0.0072466868, Final residual = 0.00024873729, No Iterations 3
smoothSolver:  Solving for Uz, Initial residual = 0.0010577338, Final residual = 3.6540924e-05, No Iterations 3
GAMG:  Solving for p, Initial residual = 0.010110545, Final residual = 5.9738582e-05, No Iterations 4
time step continuity errors : sum local = 4.6786904e-06, global = 5.115106e-08, cumulative = 0.00019266847
ExecutionTime = 15.050242 s  ClockTime = 15 s

Time = 87s

smoothSolver:  Solving for Ux, Initial residual = 0.001151824, Final residual = 3.9096024e-05, No Iterations 3
smoothSolver:  Solving for Uy, Initial residual = 0.0071446072, Final residual = 0.00024523124, No Iterations 3
smoothSolver:  Solving for Uz, Initial residual = 0.001046096, Final residual = 3.6140777e-05, No Iterations 3
GAMG:  Solving for p, Initial residual = 0.010050159, Final residual = 8.7495103e-05, No Iterations 3
time step continuity errors : sum local = 6.8582408e-06, global = 1.073112e-07, cumulative = 0.00019277578
ExecutionTime = 15.211581 s  ClockTime = 15 s

Time = 88s

smoothSolver:  Solving for Ux, Initial residual = 0.0011463684, Final residual = 3.8934558e-05, No Iterations 3
smoothSolver:  Solving for Uy, Initial residual = 0.0070412477, Final residual = 0.00024165788, No Iterations 3
smoothSolver:  Solving for Uz, Initial residual = 0.0010349547, Final residual = 3.5771802e-05, No Iterations 3
GAMG:  Solving for p, Initial residual = 0.0099499791, Final residual = 8.5740215e-05, No Iterations 3
time step continuity errors : sum local = 6.7300164e-06, global = 1.0502754e-07, cumulative = 0.00019288081
ExecutionTime = 15.374019 s  ClockTime = 15 s

Time = 89s

smoothSolver:  Solving for Ux, Initial residual = 0.0011410603, Final residual = 3.8776972e-05, No Iterations 3
smoothSolver:  Solving for Uy, Initial residual = 0.0069401017, Final residual = 0.00023814782, No Iterations 3
smoothSolver:  Solving for Uz, Initial residual = 0.0010240074, Final residual = 3.5410042e-05, No Iterations 3
GAMG:  Solving for p, Initial residual = 0.0098511789, Final residual = 8.8904158e-05, No Iterations 3
time step continuity errors : sum local = 6.9882012e-06, global = 1.0633388e-07, cumulative = 0.00019298714
ExecutionTime = 15.534442 s  ClockTime = 16 s

Time = 90s

smoothSolver:  Solving for Ux, Initial residual = 0.001136162, Final residual = 3.8633891e-05, No Iterations 3
smoothSolver:  Solving for Uy, Initial residual = 0.0068417393, Final residual = 0.0002347452, No Iterations 3
smoothSolver:  Solving for Uz, Initial residual = 0.0010131657, Final residual = 3.5050409e-05, No Iterations 3
GAMG:  Solving for p, Initial residual = 0.0097616046, Final residual = 9.3793165e-05, No Iterations 3
time step continuity errors : sum local = 7.3825016e-06, global = 1.0906513e-07, cumulative = 0.00019309621
ExecutionTime = 15.695153 s  ClockTime = 16 s

Time = 91s

smoothSolver:  Solving for Ux, Initial residual = 0.0011316589, Final residual = 3.8502878e-05, No Iterations 3
smoothSolver:  Solving for Uy, Initial residual = 0.0067457018, Final residual = 0.00023141939, No Iterations 3
smoothSolver:  Solving for Uz, Initial residual = 0.0010024645, Final residual = 3.4692469e-05, No Iterations 3
GAMG:  Solving for p, Initial residual = 0.0096797361, Final residual = 5.6615647e-05, No Iterations 4
time step continuity errors : sum local = 4.4619025e-06, global = 4.8444657e-08, cumulative = 0.00019314465
ExecutionTime = 15.865826 s  ClockTime = 16 s

Time = 92s

smoothSolver:  Solving for Ux, Initial residual = 0.0011280972, Final residual = 3.839791e-05, No Iterations 3
smoothSolver:  Solving for Uy, Initial residual = 0.0066517925, Final residual = 0.00022817774, No Iterations 3
smoothSolver:  Solving for Uz, Initial residual = 0.0009918775, Final residual = 3.4329583e-05, No Iterations 3
GAMG:  Solving for p, Initial residual = 0.0096156732, Final residual = 8.4626627e-05, No Iterations 3
time step continuity errors : sum local = 6.6752376e-06, global = 1.0032982e-07, cumulative = 0.00019324498
ExecutionTime = 16.027031 s  ClockTime = 16 s

Time = 93s

smoothSolver:  Solving for Ux, Initial residual = 0.0011229613, Final residual = 3.8246042e-05, No Iterations 3
smoothSolver:  Solving for Uy, Initial residual = 0.0065559184, Final residual = 0.00022487635, No Iterations 3
smoothSolver:  Solving for Uz, Initial residual = 0.00098167252, Final residual = 3.399326e-05, No Iterations 3
GAMG:  Solving for p, Initial residual = 0.0095124086, Final residual = 8.3301033e-05, No Iterations 3
time step continuity errors : sum local = 6.5794997e-06, global = 9.839626e-08, cumulative = 0.00019334338
ExecutionTime = 16.189639 s  ClockTime = 16 s

Time = 94s

smoothSolver:  Solving for Ux, Initial residual = 0.0011179286, Final residual = 3.8095471e-05, No Iterations 3
smoothSolver:  Solving for Uy, Initial residual = 0.0064605866, Final residual = 0.00022158844, No Iterations 3
smoothSolver:  Solving for Uz, Initial residual = 0.0009716314, Final residual = 3.3661226e-05, No Iterations 3
GAMG:  Solving for p, Initial residual = 0.0094188184, Final residual = 8.5803027e-05, No Iterations 3
time step continuity errors : sum local = 6.7862825e-06, global = 9.9918856e-08, cumulative = 0.0001934433
ExecutionTime = 16.352299 s  ClockTime = 16 s

Time = 95s

smoothSolver:  Solving for Ux, Initial residual = 0.0011131979, Final residual = 3.7954971e-05, No Iterations 3
smoothSolver:  Solving for Uy, Initial residual = 0.0063670987, Final residual = 0.00021835504, No Iterations 3
smoothSolver:  Solving for Uz, Initial residual = 0.00096169472, Final residual = 3.3331288e-05, No Iterations 3
GAMG:  Solving for p, Initial residual = 0.0093418678, Final residual = 8.9542459e-05, No Iterations 3
time step continuity errors : sum local = 7.0912215e-06, global = 1.0266832e-07, cumulative = 0.00019354597
ExecutionTime = 16.515671 s  ClockTime = 17 s

Time = 96s

smoothSolver:  Solving for Ux, Initial residual = 0.0011088186, Final residual = 3.7823885e-05, No Iterations 3
smoothSolver:  Solving for Uy, Initial residual = 0.006276502, Final residual = 0.00021521575, No Iterations 3
smoothSolver:  Solving for Uz, Initial residual = 0.0009518735, Final residual = 3.3002862e-05, No Iterations 3
GAMG:  Solving for p, Initial residual = 0.0092713087, Final residual = 9.1995261e-05, No Iterations 3
time step continuity errors : sum local = 7.2943385e-06, global = 1.041842e-07, cumulative = 0.00019365015
ExecutionTime = 16.675674 s  ClockTime = 17 s

Time = 97s

smoothSolver:  Solving for Ux, Initial residual = 0.0011046108, Final residual = 3.7696345e-05, No Iterations 3
smoothSolver:  Solving for Uy, Initial residual = 0.0061883851, Final residual = 0.00021214618, No Iterations 3
smoothSolver:  Solving for Uz, Initial residual = 0.00094223268, Final residual = 3.2677824e-05, No Iterations 3
GAMG:  Solving for p, Initial residual = 0.0092015032, Final residual = 9.1828097e-05, No Iterations 3
time step continuity errors : sum local = 7.2894823e-06, global = 1.0399579e-07, cumulative = 0.00019375415
ExecutionTime = 16.837501 s  ClockTime = 17 s

Time = 98s

smoothSolver:  Solving for Ux, Initial residual = 0.0011003612, Final residual = 3.7565456e-05, No Iterations 3
smoothSolver:  Solving for Uy, Initial residual = 0.0061020605, Final residual = 0.00020913063, No Iterations 3
smoothSolver:  Solving for Uz, Initial residual = 0.00093280614, Final residual = 3.2359517e-05, No Iterations 3
GAMG:  Solving for p, Initial residual = 0.00912956, Final residual = 8.9268854e-05, No Iterations 3
time step continuity errors : sum local = 7.0942962e-06, global = 1.021863e-07, cumulative = 0.00019385633
ExecutionTime = 16.99936 s  ClockTime = 17 s

Time = 99s

smoothSolver:  Solving for Ux, Initial residual = 0.0010959707, Final residual = 3.7428302e-05, No Iterations 3
smoothSolver:  Solving for Uy, Initial residual = 0.0060171184, Final residual = 0.0002061543, No Iterations 3
smoothSolver:  Solving for Uz, Initial residual = 0.00092358264, Final residual = 3.2048425e-05, No Iterations 3
GAMG:  Solving for p, Initial residual = 0.0090543584, Final residual = 8.5628536e-05, No Iterations 3
time step continuity errors : sum local = 6.8127018e-06, global = 9.9247428e-08, cumulative = 0.00019395558
ExecutionTime = 17.161165 s  ClockTime = 17 s

Time = 100s

smoothSolver:  Solving for Ux, Initial residual = 0.0010914539, Final residual = 3.728562e-05, No Iterations 3
smoothSolver:  Solving for Uy, Initial residual = 0.0059333353, Final residual = 0.0002032079, No Iterations 3
smoothSolver:  Solving for Uz, Initial residual = 0.00091453005, Final residual = 3.174419e-05, No Iterations 3
GAMG:  Solving for p, Initial residual = 0.0089743485, Final residual = 8.2384804e-05, No Iterations 3
time step continuity errors : sum local = 6.5621969e-06, global = 9.5862057e-08, cumulative = 0.00019405144
ExecutionTime = 17.323696 s  ClockTime = 17 s

Time = 101s

smoothSolver:  Solving for Ux, Initial residual = 0.0010868935, Final residual = 3.7141403e-05, No Iterations 3
smoothSolver:  Solving for Uy, Initial residual = 0.0058506748, Final residual = 0.00020028778, No Iterations 3
smoothSolver:  Solving for Uz, Initial residual = 0.00090559893, Final residual = 3.1445338e-05, No Iterations 3
GAMG:  Solving for p, Initial residual = 0.0088990668, Final residual = 8.0461026e-05, No Iterations 3
time step continuity errors : sum local = 6.4165307e-06, global = 9.2781307e-08, cumulative = 0.00019414422
ExecutionTime = 17.48576 s  ClockTime = 18 s

Time = 102s

smoothSolver:  Solving for Ux, Initial residual = 0.001082366, Final residual = 3.6999208e-05, No Iterations 3
smoothSolver:  Solving for Uy, Initial residual = 0.0057685524, Final residual = 0.00019740032, No Iterations 3
smoothSolver:  Solving for Uz, Initial residual = 0.00089675627, Final residual = 3.11496e-05, No Iterations 3
GAMG:  Solving for p, Initial residual = 0.008831223, Final residual = 7.9838067e-05, No Iterations 3
time step continuity errors : sum local = 6.3744151e-06, global = 9.055421e-08, cumulative = 0.00019423478
ExecutionTime = 17.648351 s  ClockTime = 18 s

Time = 103s

smoothSolver:  Solving for Ux, Initial residual = 0.0010779348, Final residual = 3.6859578e-05, No Iterations 3
smoothSolver:  Solving for Uy, Initial residual = 0.0056881772, Final residual = 0.00019456883, No Iterations 3
smoothSolver:  Solving for Uz, Initial residual = 0.00088802104, Final residual = 3.0856499e-05, No Iterations 3
GAMG:  Solving for p, Initial residual = 0.0087697248, Final residual = 7.9995719e-05, No Iterations 3
time step continuity errors : sum local = 6.3945349e-06, global = 8.9447549e-08, cumulative = 0.00019432423
ExecutionTime = 17.811351 s  ClockTime = 18 s

Time = 104s

smoothSolver:  Solving for Ux, Initial residual = 0.0010735877, Final residual = 3.6722541e-05, No Iterations 3
smoothSolver:  Solving for Uy, Initial residual = 0.0056099519, Final residual = 0.00019179791, No Iterations 3
smoothSolver:  Solving for Uz, Initial residual = 0.00087942365, Final residual = 3.0567304e-05, No Iterations 3
GAMG:  Solving for p, Initial residual = 0.0087075538, Final residual = 8.0224942e-05, No Iterations 3
time step continuity errors : sum local = 6.4202907e-06, global = 8.9039298e-08, cumulative = 0.00019441326
ExecutionTime = 17.973083 s  ClockTime = 18 s

Time = 105s

smoothSolver:  Solving for Ux, Initial residual = 0.0010692161, Final residual = 3.6585407e-05, No Iterations 3
smoothSolver:  Solving for Uy, Initial residual = 0.0055335081, Final residual = 0.00018908074, No Iterations 3
smoothSolver:  Solving for Uz, Initial residual = 0.00087096626, Final residual = 3.0282748e-05, No Iterations 3
GAMG:  Solving for p, Initial residual = 0.0086450946, Final residual = 8.0036108e-05, No Iterations 3
time step continuity errors : sum local = 6.4124228e-06, global = 8.8847464e-08, cumulative = 0.00019450211
ExecutionTime = 18.134172 s  ClockTime = 18 s

Time = 106s

smoothSolver:  Solving for Ux, Initial residual = 0.0010647877, Final residual = 3.6447049e-05, No Iterations 3
smoothSolver:  Solving for Uy, Initial residual = 0.0054588938, Final residual = 0.00018641395, No Iterations 3
smoothSolver:  Solving for Uz, Initial residual = 0.00086266672, Final residual = 3.0002797e-05, No Iterations 3
GAMG:  Solving for p, Initial residual = 0.0085824455, Final residual = 7.9250345e-05, No Iterations 3
time step continuity errors : sum local = 6.3564785e-06, global = 8.8448528e-08, cumulative = 0.00019459056
ExecutionTime = 18.297227 s  ClockTime = 18 s

Time = 107s

smoothSolver:  Solving for Ux, Initial residual = 0.001060286, Final residual = 3.6308439e-05, No Iterations 3
smoothSolver:  Solving for Uy, Initial residual = 0.0053865035, Final residual = 0.00018381562, No Iterations 3
smoothSolver:  Solving for Uz, Initial residual = 0.00085451826, Final residual = 2.9728364e-05, No Iterations 3
GAMG:  Solving for p, Initial residual = 0.0085195506, Final residual = 7.799242e-05, No Iterations 3
time step continuity errors : sum local = 6.2623769e-06, global = 8.7614392e-08, cumulative = 0.00019467818
ExecutionTime = 18.458244 s  ClockTime = 19 s

Time = 108s

smoothSolver:  Solving for Ux, Initial residual = 0.0010557595, Final residual = 3.6169205e-05, No Iterations 3
smoothSolver:  Solving for Uy, Initial residual = 0.0053160012, Final residual = 0.00018129679, No Iterations 3
smoothSolver:  Solving for Uz, Initial residual = 0.00084648948, Final residual = 2.9460014e-05, No Iterations 3
GAMG:  Solving for p, Initial residual = 0.0084590035, Final residual = 7.6547452e-05, No Iterations 3
time step continuity errors : sum local = 6.1529544e-06, global = 8.6374652e-08, cumulative = 0.00019476455
ExecutionTime = 18.620867 s  ClockTime = 19 s

Time = 109s

smoothSolver:  Solving for Ux, Initial residual = 0.0010512684, Final residual = 3.6033372e-05, No Iterations 3
smoothSolver:  Solving for Uy, Initial residual = 0.0052478233, Final residual = 0.00017885429, No Iterations 3
smoothSolver:  Solving for Uz, Initial residual = 0.00083856393, Final residual = 2.9196184e-05, No Iterations 3
GAMG:  Solving for p, Initial residual = 0.0083983772, Final residual = 7.5295398e-05, No Iterations 3
time step continuity errors : sum local = 6.0588189e-06, global = 8.5031125e-08, cumulative = 0.00019484958
ExecutionTime = 18.78217 s  ClockTime = 19 s

Time = 110s

smoothSolver:  Solving for Ux, Initial residual = 0.0010468374, Final residual = 3.5899621e-05, No Iterations 3
smoothSolver:  Solving for Uy, Initial residual = 0.0051821458, Final residual = 0.00017650585, No Iterations 3
smoothSolver:  Solving for Uz, Initial residual = 0.00083074426, Final residual = 2.8935608e-05, No Iterations 3
GAMG:  Solving for p, Initial residual = 0.0083370668, Final residual = 7.4382831e-05, No Iterations 3
time step continuity errors : sum local = 5.9918411e-06, global = 8.3690506e-08, cumulative = 0.00019493327
ExecutionTime = 18.943169 s  ClockTime = 19 s

Time = 111s

smoothSolver:  Solving for Ux, Initial residual = 0.0010424454, Final residual = 3.5768418e-05, No Iterations 3
smoothSolver:  Solving for Uy, Initial residual = 0.0051187111, Final residual = 0.00017424438, No Iterations 3
smoothSolver:  Solving for Uz, Initial residual = 0.00082302659, Final residual = 2.8678776e-05, No Iterations 3
GAMG:  Solving for p, Initial residual = 0.0082793218, Final residual = 7.3731971e-05, No Iterations 3
time step continuity errors : sum local = 5.9458011e-06, global = 8.2456851e-08, cumulative = 0.00019501573
ExecutionTime = 19.104552 s  ClockTime = 19 s

Time = 112s

smoothSolver:  Solving for Ux, Initial residual = 0.0010380899, Final residual = 3.5637855e-05, No Iterations 3
smoothSolver:  Solving for Uy, Initial residual = 0.0050577356, Final residual = 0.00017207561, No Iterations 3
smoothSolver:  Solving for Uz, Initial residual = 0.00081540953, Final residual = 2.8425678e-05, No Iterations 3
GAMG:  Solving for p, Initial residual = 0.0082248843, Final residual = 7.3309786e-05, No Iterations 3
time step continuity errors : sum local = 5.9181558e-06, global = 8.2951965e-08, cumulative = 0.00019509868
ExecutionTime = 19.268038 s  ClockTime = 19 s

Time = 113s

smoothSolver:  Solving for Ux, Initial residual = 0.0010337624, Final residual = 3.5509937e-05, No Iterations 3
smoothSolver:  Solving for Uy, Initial residual = 0.0049989501, Final residual = 0.00016998396, No Iterations 3
smoothSolver:  Solving for Uz, Initial residual = 0.00080789774, Final residual = 2.8176784e-05, No Iterations 3
GAMG:  Solving for p, Initial residual = 0.0081678631, Final residual = 7.2780407e-05, No Iterations 3
time step continuity errors : sum local = 5.8817653e-06, global = 8.2683895e-08, cumulative = 0.00019518136
ExecutionTime = 19.42921 s  ClockTime = 20 s

Time = 114s

smoothSolver:  Solving for Ux, Initial residual = 0.0010294366, Final residual = 3.5382683e-05, No Iterations 3
smoothSolver:  Solving for Uy, Initial residual = 0.0049415133, Final residual = 0.00016795195, No Iterations 3
smoothSolver:  Solving for Uz, Initial residual = 0.00080049954, Final residual = 2.7931693e-05, No Iterations 3
GAMG:  Solving for p, Initial residual = 0.0081111714, Final residual = 7.2178781e-05, No Iterations 3
time step continuity errors : sum local = 5.8394e-06, global = 8.2113469e-08, cumulative = 0.00019526348
ExecutionTime = 19.59088 s  ClockTime = 20 s

Time = 115s

smoothSolver:  Solving for Ux, Initial residual = 0.0010250882, Final residual = 3.5255178e-05, No Iterations 3
smoothSolver:  Solving for Uy, Initial residual = 0.0048853891, Final residual = 0.00016597257, No Iterations 3
smoothSolver:  Solving for Uz, Initial residual = 0.00079319955, Final residual = 2.7690209e-05, No Iterations 3
GAMG:  Solving for p, Initial residual = 0.0080548391, Final residual = 7.1432163e-05, No Iterations 3
time step continuity errors : sum local = 5.7851249e-06, global = 8.0977419e-08, cumulative = 0.00019534446
ExecutionTime = 19.752621 s  ClockTime = 20 s

Time = 116s

smoothSolver:  Solving for Ux, Initial residual = 0.0010207254, Final residual = 3.5128867e-05, No Iterations 3
smoothSolver:  Solving for Uy, Initial residual = 0.0048300539, Final residual = 0.00016401651, No Iterations 3
smoothSolver:  Solving for Uz, Initial residual = 0.00078598241, Final residual = 2.745225e-05, No Iterations 3
GAMG:  Solving for p, Initial residual = 0.0080014293, Final residual = 7.0639959e-05, No Iterations 3
time step continuity errors : sum local = 5.7269554e-06, global = 8.0268588e-08, cumulative = 0.00019542472
ExecutionTime = 19.913715 s  ClockTime = 20 s

Time = 117s

smoothSolver:  Solving for Ux, Initial residual = 0.0010163453, Final residual = 3.5003878e-05, No Iterations 3
smoothSolver:  Solving for Uy, Initial residual = 0.0047754627, Final residual = 0.00016208226, No Iterations 3
smoothSolver:  Solving for Uz, Initial residual = 0.00077883613, Final residual = 2.7217304e-05, No Iterations 3
GAMG:  Solving for p, Initial residual = 0.0079453283, Final residual = 6.9786264e-05, No Iterations 3
time step continuity errors : sum local = 5.6635796e-06, global = 7.9063524e-08, cumulative = 0.00019550379
ExecutionTime = 20.074315 s  ClockTime = 20 s

Time = 118s

smoothSolver:  Solving for Ux, Initial residual = 0.0010119346, Final residual = 3.4881508e-05, No Iterations 3
smoothSolver:  Solving for Uy, Initial residual = 0.004721632, Final residual = 0.00016016611, No Iterations 3
smoothSolver:  Solving for Uz, Initial residual = 0.00077176301, Final residual = 2.6984978e-05, No Iterations 3
GAMG:  Solving for p, Initial residual = 0.0078885624, Final residual = 6.8949995e-05, No Iterations 3
time step continuity errors : sum local = 5.6014511e-06, global = 7.7308387e-08, cumulative = 0.0001955811
ExecutionTime = 20.235361 s  ClockTime = 20 s

Time = 119s

smoothSolver:  Solving for Ux, Initial residual = 0.0010075162, Final residual = 3.4759122e-05, No Iterations 3
smoothSolver:  Solving for Uy, Initial residual = 0.0046689889, Final residual = 0.00015830703, No Iterations 3
smoothSolver:  Solving for Uz, Initial residual = 0.00076476902, Final residual = 2.675522e-05, No Iterations 3
GAMG:  Solving for p, Initial residual = 0.0078339906, Final residual = 6.8239241e-05, No Iterations 3
time step continuity errors : sum local = 5.5493607e-06, global = 7.7044066e-08, cumulative = 0.00019565814
ExecutionTime = 20.396947 s  ClockTime = 21 s

Time = 120s

smoothSolver:  Solving for Ux, Initial residual = 0.0010031028, Final residual = 3.4635078e-05, No Iterations 3
smoothSolver:  Solving for Uy, Initial residual = 0.0046186083, Final residual = 0.00015653269, No Iterations 3
smoothSolver:  Solving for Uz, Initial residual = 0.00075788352, Final residual = 2.6528559e-05, No Iterations 3
GAMG:  Solving for p, Initial residual = 0.007781687, Final residual = 6.769443e-05, No Iterations 3
time step continuity errors : sum local = 5.5106428e-06, global = 7.5920497e-08, cumulative = 0.00019573406
ExecutionTime = 20.560345 s  ClockTime = 21 s

Time = 121s

smoothSolver:  Solving for Ux, Initial residual = 0.00099871119, Final residual = 3.4510774e-05, No Iterations 3
smoothSolver:  Solving for Uy, Initial residual = 0.0045702399, Final residual = 0.00015483714, No Iterations 3
smoothSolver:  Solving for Uz, Initial residual = 0.00075110888, Final residual = 2.6305649e-05, No Iterations 3
GAMG:  Solving for p, Initial residual = 0.0077304838, Final residual = 6.7276899e-05, No Iterations 3
time step continuity errors : sum local = 5.4822046e-06, global = 7.4774022e-08, cumulative = 0.00019580883
ExecutionTime = 20.723738 s  ClockTime = 21 s

Time = 122s

smoothSolver:  Solving for Ux, Initial residual = 0.00099434983, Final residual = 3.4386256e-05, No Iterations 3
smoothSolver:  Solving for Uy, Initial residual = 0.0045243318, Final residual = 0.0001532238, No Iterations 3
smoothSolver:  Solving for Uz, Initial residual = 0.00074443826, Final residual = 2.6086268e-05, No Iterations 3
GAMG:  Solving for p, Initial residual = 0.0076754125, Final residual = 6.6839853e-05, No Iterations 3
time step continuity errors : sum local = 5.4520859e-06, global = 7.3468001e-08, cumulative = 0.0001958823
ExecutionTime = 20.888868 s  ClockTime = 21 s

Time = 123s

smoothSolver:  Solving for Ux, Initial residual = 0.00098999613, Final residual = 3.4261236e-05, No Iterations 3
smoothSolver:  Solving for Uy, Initial residual = 0.0044795016, Final residual = 0.00015165945, No Iterations 3
smoothSolver:  Solving for Uz, Initial residual = 0.00073785209, Final residual = 2.5869754e-05, No Iterations 3
GAMG:  Solving for p, Initial residual = 0.0076200258, Final residual = 6.6297971e-05, No Iterations 3
time step continuity errors : sum local = 5.4132855e-06, global = 7.1989665e-08, cumulative = 0.00019595429
ExecutionTime = 21.049988 s  ClockTime = 21 s

Time = 124s

smoothSolver:  Solving for Ux, Initial residual = 0.00098564244, Final residual = 3.4136682e-05, No Iterations 3
smoothSolver:  Solving for Uy, Initial residual = 0.0044354459, Final residual = 0.00015012868, No Iterations 3
smoothSolver:  Solving for Uz, Initial residual = 0.00073134852, Final residual = 2.5655946e-05, No Iterations 3
GAMG:  Solving for p, Initial residual = 0.0075666986, Final residual = 6.5675796e-05, No Iterations 3
time step continuity errors : sum local = 5.367808e-06, global = 7.0492059e-08, cumulative = 0.00019602478
ExecutionTime = 21.212099 s  ClockTime = 21 s

Time = 125s

smoothSolver:  Solving for Ux, Initial residual = 0.00098129084, Final residual = 3.4012601e-05, No Iterations 3
smoothSolver:  Solving for Uy, Initial residual = 0.0043924857, Final residual = 0.00014864462, No Iterations 3
smoothSolver:  Solving for Uz, Initial residual = 0.00072492394, Final residual = 2.5444552e-05, No Iterations 3
GAMG:  Solving for p, Initial residual = 0.0075139763, Final residual = 6.4972075e-05, No Iterations 3
time step continuity errors : sum local = 5.3155105e-06, global = 6.8858036e-08, cumulative = 0.00019609364
ExecutionTime = 21.375133 s  ClockTime = 22 s

Time = 126s

smoothSolver:  Solving for Ux, Initial residual = 0.00097696371, Final residual = 3.3888244e-05, No Iterations 3
smoothSolver:  Solving for Uy, Initial residual = 0.0043509546, Final residual = 0.00014722076, No Iterations 3
smoothSolver:  Solving for Uz, Initial residual = 0.00071856953, Final residual = 2.5235483e-05, No Iterations 3
GAMG:  Solving for p, Initial residual = 0.0074638311, Final residual = 6.4233438e-05, No Iterations 3
time step continuity errors : sum local = 5.2602091e-06, global = 6.7204892e-08, cumulative = 0.00019616085
ExecutionTime = 21.537203 s  ClockTime = 22 s

Time = 127s

smoothSolver:  Solving for Ux, Initial residual = 0.00097266722, Final residual = 3.3764838e-05, No Iterations 3
smoothSolver:  Solving for Uy, Initial residual = 0.0043102012, Final residual = 0.00014585293, No Iterations 3
smoothSolver:  Solving for Uz, Initial residual = 0.0007122945, Final residual = 2.502939e-05, No Iterations 3
GAMG:  Solving for p, Initial residual = 0.0074136233, Final residual = 6.3535974e-05, No Iterations 3
time step continuity errors : sum local = 5.2080984e-06, global = 6.5695245e-08, cumulative = 0.00019622654
ExecutionTime = 21.699187 s  ClockTime = 22 s

Time = 128s

smoothSolver:  Solving for Ux, Initial residual = 0.00096838693, Final residual = 3.3641126e-05, No Iterations 3
smoothSolver:  Solving for Uy, Initial residual = 0.0042705926, Final residual = 0.00014452455, No Iterations 3
smoothSolver:  Solving for Uz, Initial residual = 0.00070609751, Final residual = 2.4826165e-05, No Iterations 3
GAMG:  Solving for p, Initial residual = 0.0073677168, Final residual = 6.2898871e-05, No Iterations 3
time step continuity errors : sum local = 5.1608163e-06, global = 6.4415347e-08, cumulative = 0.00019629096
ExecutionTime = 21.861173 s  ClockTime = 22 s

Time = 129s

smoothSolver:  Solving for Ux, Initial residual = 0.00096412592, Final residual = 3.3516516e-05, No Iterations 3
smoothSolver:  Solving for Uy, Initial residual = 0.0042322285, Final residual = 0.00014322964, No Iterations 3
smoothSolver:  Solving for Uz, Initial residual = 0.00069997632, Final residual = 2.4625337e-05, No Iterations 3
GAMG:  Solving for p, Initial residual = 0.0073209365, Final residual = 6.229576e-05, No Iterations 3
time step continuity errors : sum local = 5.1162172e-06, global = 6.3266672e-08, cumulative = 0.00019635422
ExecutionTime = 22.022946 s  ClockTime = 22 s

Time = 130s

smoothSolver:  Solving for Ux, Initial residual = 0.00095987038, Final residual = 3.3389688e-05, No Iterations 3
smoothSolver:  Solving for Uy, Initial residual = 0.0041954733, Final residual = 0.00014197665, No Iterations 3
[...]
GAMG:  Solving for p, Initial residual = 1.4229726e-05, Final residual = 1.1498597e-07, No Iterations 2
time step continuity errors : sum local = 1.0876891e-08, global = -7.4666972e-10, cumulative = 0.00019775965
ExecutionTime = 150.24397 s  ClockTime = 152 s

Time = 943s

smoothSolver:  Solving for Ux, Initial residual = 2.8656958e-06, Final residual = 1.0443866e-07, No Iterations 3
smoothSolver:  Solving for Uy, Initial residual = 9.8979963e-06, Final residual = 3.5685138e-07, No Iterations 3
smoothSolver:  Solving for Uz, Initial residual = 8.0524076e-07, Final residual = 2.8916965e-08, No Iterations 3
GAMG:  Solving for p, Initial residual = 1.4074381e-05, Final residual = 1.1371268e-07, No Iterations 2
time step continuity errors : sum local = 1.075643e-08, global = -7.4220615e-10, cumulative = 0.00019775891
ExecutionTime = 150.39665 s  ClockTime = 152 s

Time = 944s

smoothSolver:  Solving for Ux, Initial residual = 2.833737e-06, Final residual = 1.0331013e-07, No Iterations 3
smoothSolver:  Solving for Uy, Initial residual = 9.821802e-06, Final residual = 3.5412106e-07, No Iterations 3
smoothSolver:  Solving for Uz, Initial residual = 7.968173e-07, Final residual = 2.8629673e-08, No Iterations 3
GAMG:  Solving for p, Initial residual = 1.3920748e-05, Final residual = 1.1246876e-07, No Iterations 2
time step continuity errors : sum local = 1.0638748e-08, global = -7.3697908e-10, cumulative = 0.00019775817
ExecutionTime = 150.54637 s  ClockTime = 152 s

Time = 945s

smoothSolver:  Solving for Ux, Initial residual = 2.8020974e-06, Final residual = 1.0219487e-07, No Iterations 3
smoothSolver:  Solving for Uy, Initial residual = 9.746082e-06, Final residual = 3.5140382e-07, No Iterations 3
smoothSolver:  Solving for Uz, Initial residual = 7.8847644e-07, Final residual = 2.8345181e-08, No Iterations 3
GAMG:  Solving for p, Initial residual = 1.3768745e-05, Final residual = 1.111808e-07, No Iterations 2
time step continuity errors : sum local = 1.0516899e-08, global = -7.3324586e-10, cumulative = 0.00019775744
ExecutionTime = 150.69846 s  ClockTime = 153 s

Time = 946s

smoothSolver:  Solving for Ux, Initial residual = 2.7707746e-06, Final residual = 1.0109295e-07, No Iterations 3
smoothSolver:  Solving for Uy, Initial residual = 9.6707082e-06, Final residual = 3.4868407e-07, No Iterations 3
smoothSolver:  Solving for Uz, Initial residual = 7.8021538e-07, Final residual = 2.8063409e-08, No Iterations 3
GAMG:  Solving for p, Initial residual = 1.3618366e-05, Final residual = 1.0993985e-07, No Iterations 2
time step continuity errors : sum local = 1.0399498e-08, global = -7.2861687e-10, cumulative = 0.00019775671
ExecutionTime = 150.85112 s  ClockTime = 153 s

Time = 947s

smoothSolver:  Solving for Ux, Initial residual = 2.7397603e-06, Final residual = 1.0000315e-07, No Iterations 3
smoothSolver:  Solving for Uy, Initial residual = 9.5958227e-06, Final residual = 3.4597936e-07, No Iterations 3
smoothSolver:  Solving for Uz, Initial residual = 7.7203538e-07, Final residual = 2.7784458e-08, No Iterations 3
GAMG:  Solving for p, Initial residual = 1.3469526e-05, Final residual = 1.0875083e-07, No Iterations 2
time step continuity errors : sum local = 1.0287011e-08, global = -7.2337443e-10, cumulative = 0.00019775598
ExecutionTime = 151.00389 s  ClockTime = 153 s

Time = 948s

smoothSolver:  Solving for Ux, Initial residual = 2.7090706e-06, Final residual = 9.8925505e-08, No Iterations 3
smoothSolver:  Solving for Uy, Initial residual = 9.5213228e-06, Final residual = 3.4329884e-07, No Iterations 3
smoothSolver:  Solving for Uz, Initial residual = 7.6394156e-07, Final residual = 2.7508218e-08, No Iterations 3
GAMG:  Solving for p, Initial residual = 1.3322127e-05, Final residual = 1.0749167e-07, No Iterations 2
time step continuity errors : sum local = 1.0167888e-08, global = -7.1933563e-10, cumulative = 0.00019775526
ExecutionTime = 151.15539 s  ClockTime = 153 s

Time = 949s

smoothSolver:  Solving for Ux, Initial residual = 2.6786717e-06, Final residual = 9.7858617e-08, No Iterations 3
smoothSolver:  Solving for Uy, Initial residual = 9.4469128e-06, Final residual = 3.4062422e-07, No Iterations 3
smoothSolver:  Solving for Uz, Initial residual = 7.5593034e-07, Final residual = 2.7234569e-08, No Iterations 3
GAMG:  Solving for p, Initial residual = 1.3176334e-05, Final residual = 1.062849e-07, No Iterations 2
time step continuity errors : sum local = 1.0053722e-08, global = -7.146787e-10, cumulative = 0.00019775455
ExecutionTime = 151.30868 s  ClockTime = 153 s

Time = 950s

smoothSolver:  Solving for Ux, Initial residual = 2.6486011e-06, Final residual = 9.6802673e-08, No Iterations 3
smoothSolver:  Solving for Uy, Initial residual = 9.3726779e-06, Final residual = 3.3796233e-07, No Iterations 3
smoothSolver:  Solving for Uz, Initial residual = 7.4799232e-07, Final residual = 2.6963331e-08, No Iterations 3
GAMG:  Solving for p, Initial residual = 1.3031945e-05, Final residual = 1.051257e-07, No Iterations 2
time step continuity errors : sum local = 9.9440556e-09, global = -7.0944708e-10, cumulative = 0.00019775384
ExecutionTime = 151.46117 s  ClockTime = 153 s

Time = 951s

smoothSolver:  Solving for Ux, Initial residual = 2.61885e-06, Final residual = 9.5758359e-08, No Iterations 3
smoothSolver:  Solving for Uy, Initial residual = 9.2990251e-06, Final residual = 3.3530225e-07, No Iterations 3
smoothSolver:  Solving for Uz, Initial residual = 7.4012459e-07, Final residual = 2.6694825e-08, No Iterations 3
GAMG:  Solving for p, Initial residual = 1.2889079e-05, Final residual = 1.0387635e-07, No Iterations 2
time step continuity errors : sum local = 9.8258623e-09, global = -7.0539295e-10, cumulative = 0.00019775314
ExecutionTime = 151.61365 s  ClockTime = 154 s

Time = 952s

smoothSolver:  Solving for Ux, Initial residual = 2.589351e-06, Final residual = 9.4723391e-08, No Iterations 3
smoothSolver:  Solving for Uy, Initial residual = 9.2257975e-06, Final residual = 3.3264255e-07, No Iterations 3
smoothSolver:  Solving for Uz, Initial residual = 7.3232727e-07, Final residual = 2.6428668e-08, No Iterations 3
GAMG:  Solving for p, Initial residual = 1.2747646e-05, Final residual = 1.0268986e-07, No Iterations 2
time step continuity errors : sum local = 9.7136163e-09, global = -7.0074814e-10, cumulative = 0.00019775243
ExecutionTime = 151.76498 s  ClockTime = 154 s

Time = 953s

smoothSolver:  Solving for Ux, Initial residual = 2.5601243e-06, Final residual = 9.3698799e-08, No Iterations 3
smoothSolver:  Solving for Uy, Initial residual = 9.1531004e-06, Final residual = 3.2999036e-07, No Iterations 3
smoothSolver:  Solving for Uz, Initial residual = 7.2460268e-07, Final residual = 2.6164998e-08, No Iterations 3
GAMG:  Solving for p, Initial residual = 1.2607497e-05, Final residual = 1.0151756e-07, No Iterations 2
time step continuity errors : sum local = 9.602712e-09, global = -6.9609583e-10, cumulative = 0.00019775174
ExecutionTime = 151.91738 s  ClockTime = 154 s

Time = 954s

smoothSolver:  Solving for Ux, Initial residual = 2.5311766e-06, Final residual = 9.2684187e-08, No Iterations 3
smoothSolver:  Solving for Uy, Initial residual = 9.080643e-06, Final residual = 3.2735188e-07, No Iterations 3
smoothSolver:  Solving for Uz, Initial residual = 7.1695141e-07, Final residual = 2.5903678e-08, No Iterations 3
GAMG:  Solving for p, Initial residual = 1.2468752e-05, Final residual = 1.0035578e-07, No Iterations 2
time step continuity errors : sum local = 9.4928037e-09, global = -6.9143338e-10, cumulative = 0.00019775105
ExecutionTime = 152.07086 s  ClockTime = 154 s

Time = 955s

smoothSolver:  Solving for Ux, Initial residual = 2.5024757e-06, Final residual = 9.1679883e-08, No Iterations 3
smoothSolver:  Solving for Uy, Initial residual = 9.0084421e-06, Final residual = 3.2472559e-07, No Iterations 3
smoothSolver:  Solving for Uz, Initial residual = 7.0937307e-07, Final residual = 2.5644668e-08, No Iterations 3
GAMG:  Solving for p, Initial residual = 1.2331323e-05, Final residual = 9.9230773e-08, No Iterations 2
time step continuity errors : sum local = 9.3863741e-09, global = -6.8632654e-10, cumulative = 0.00019775036
ExecutionTime = 152.22351 s  ClockTime = 154 s

Time = 956s

smoothSolver:  Solving for Ux, Initial residual = 2.474031e-06, Final residual = 9.0685926e-08, No Iterations 3
smoothSolver:  Solving for Uy, Initial residual = 8.9363589e-06, Final residual = 3.2210384e-07, No Iterations 3
smoothSolver:  Solving for Uz, Initial residual = 7.0186356e-07, Final residual = 2.5388017e-08, No Iterations 3
GAMG:  Solving for p, Initial residual = 1.219505e-05, Final residual = 9.8042213e-08, No Iterations 2
time step continuity errors : sum local = 9.2739332e-09, global = -6.8212421e-10, cumulative = 0.00019774968
ExecutionTime = 152.3772 s  ClockTime = 154 s

Time = 957s

smoothSolver:  Solving for Ux, Initial residual = 2.4458615e-06, Final residual = 8.9699e-08, No Iterations 3
smoothSolver:  Solving for Uy, Initial residual = 8.8641651e-06, Final residual = 3.194918e-07, No Iterations 3
smoothSolver:  Solving for Uz, Initial residual = 6.944229e-07, Final residual = 2.5133459e-08, No Iterations 3
GAMG:  Solving for p, Initial residual = 1.2060126e-05, Final residual = 9.6902716e-08, No Iterations 2
time step continuity errors : sum local = 9.1661338e-09, global = -6.774743e-10, cumulative = 0.000197749
ExecutionTime = 152.52986 s  ClockTime = 155 s

Time = 958s

smoothSolver:  Solving for Ux, Initial residual = 2.4179707e-06, Final residual = 8.8719153e-08, No Iterations 3
smoothSolver:  Solving for Uy, Initial residual = 8.7922426e-06, Final residual = 3.1688659e-07, No Iterations 3
smoothSolver:  Solving for Uz, Initial residual = 6.8705057e-07, Final residual = 2.4880986e-08, No Iterations 3
GAMG:  Solving for p, Initial residual = 1.1926629e-05, Final residual = 9.5776879e-08, No Iterations 2
time step continuity errors : sum local = 9.0596268e-09, global = -6.7282507e-10, cumulative = 0.00019774833
ExecutionTime = 152.68154 s  ClockTime = 155 s

Time = 959s

smoothSolver:  Solving for Ux, Initial residual = 2.3903271e-06, Final residual = 8.77475e-08, No Iterations 3
smoothSolver:  Solving for Uy, Initial residual = 8.7205748e-06, Final residual = 3.1429247e-07, No Iterations 3
smoothSolver:  Solving for Uz, Initial residual = 6.7974869e-07, Final residual = 2.4630655e-08, No Iterations 3
GAMG:  Solving for p, Initial residual = 1.1794343e-05, Final residual = 9.4661792e-08, No Iterations 2
time step continuity errors : sum local = 8.9541371e-09, global = -6.6817568e-10, cumulative = 0.00019774766
ExecutionTime = 152.83292 s  ClockTime = 155 s

Time = 960s

smoothSolver:  Solving for Ux, Initial residual = 2.3629478e-06, Final residual = 8.6784689e-08, No Iterations 3
smoothSolver:  Solving for Uy, Initial residual = 8.6491408e-06, Final residual = 3.1170382e-07, No Iterations 3
smoothSolver:  Solving for Uz, Initial residual = 6.725121e-07, Final residual = 2.4382437e-08, No Iterations 3
GAMG:  Solving for p, Initial residual = 1.1663088e-05, Final residual = 9.3554266e-08, No Iterations 2
time step continuity errors : sum local = 8.849363e-09, global = -6.6352725e-10, cumulative = 0.000197747
ExecutionTime = 152.98489 s  ClockTime = 155 s

Time = 961s

smoothSolver:  Solving for Ux, Initial residual = 2.3357931e-06, Final residual = 8.5830059e-08, No Iterations 3
smoothSolver:  Solving for Uy, Initial residual = 8.5783198e-06, Final residual = 3.091222e-07, No Iterations 3
smoothSolver:  Solving for Uz, Initial residual = 6.6533796e-07, Final residual = 2.4136259e-08, No Iterations 3
GAMG:  Solving for p, Initial residual = 1.1532971e-05, Final residual = 9.245497e-08, No Iterations 2
time step continuity errors : sum local = 8.7453676e-09, global = -6.5888712e-10, cumulative = 0.00019774634
ExecutionTime = 153.138 s  ClockTime = 155 s

Time = 962s

smoothSolver:  Solving for Ux, Initial residual = 2.3088677e-06, Final residual = 8.4883038e-08, No Iterations 3
smoothSolver:  Solving for Uy, Initial residual = 8.5080162e-06, Final residual = 3.0655734e-07, No Iterations 3
smoothSolver:  Solving for Uz, Initial residual = 6.5823122e-07, Final residual = 2.3891711e-08, No Iterations 3
GAMG:  Solving for p, Initial residual = 1.1404062e-05, Final residual = 9.1363122e-08, No Iterations 2
time step continuity errors : sum local = 8.6420772e-09, global = -6.5426665e-10, cumulative = 0.00019774568
ExecutionTime = 153.29128 s  ClockTime = 155 s

Time = 963s

smoothSolver:  Solving for Ux, Initial residual = 2.2821807e-06, Final residual = 8.3944198e-08, No Iterations 3
smoothSolver:  Solving for Uy, Initial residual = 8.4380254e-06, Final residual = 3.0398946e-07, No Iterations 3
smoothSolver:  Solving for Uz, Initial residual = 6.511801e-07, Final residual = 2.3648779e-08, No Iterations 3
GAMG:  Solving for p, Initial residual = 1.1276425e-05, Final residual = 9.0280956e-08, No Iterations 2
time step continuity errors : sum local = 8.539703e-09, global = -6.4967887e-10, cumulative = 0.00019774503
ExecutionTime = 153.44315 s  ClockTime = 155 s

Time = 964s

smoothSolver:  Solving for Ux, Initial residual = 2.2557156e-06, Final residual = 8.3013379e-08, No Iterations 3
smoothSolver:  Solving for Uy, Initial residual = 8.3684268e-06, Final residual = 3.0142733e-07, No Iterations 3
smoothSolver:  Solving for Uz, Initial residual = 6.4418688e-07, Final residual = 2.3407712e-08, No Iterations 3
GAMG:  Solving for p, Initial residual = 1.1149783e-05, Final residual = 8.9209203e-08, No Iterations 2
time step continuity errors : sum local = 8.438314e-09, global = -6.4513763e-10, cumulative = 0.00019774439
ExecutionTime = 153.59739 s  ClockTime = 156 s

Time = 965s

smoothSolver:  Solving for Ux, Initial residual = 2.2294933e-06, Final residual = 8.2090091e-08, No Iterations 3
smoothSolver:  Solving for Uy, Initial residual = 8.2993104e-06, Final residual = 2.9888077e-07, No Iterations 3
smoothSolver:  Solving for Uz, Initial residual = 6.3725532e-07, Final residual = 2.316873e-08, No Iterations 3
GAMG:  Solving for p, Initial residual = 1.1024175e-05, Final residual = 8.8149305e-08, No Iterations 2
time step continuity errors : sum local = 8.3380467e-09, global = -6.406498e-10, cumulative = 0.00019774375
ExecutionTime = 153.74875 s  ClockTime = 156 s

Time = 966s

smoothSolver:  Solving for Ux, Initial residual = 2.2035213e-06, Final residual = 8.1174215e-08, No Iterations 3
smoothSolver:  Solving for Uy, Initial residual = 8.230369e-06, Final residual = 2.9635909e-07, No Iterations 3
smoothSolver:  Solving for Uz, Initial residual = 6.3038723e-07, Final residual = 2.2931438e-08, No Iterations 3
GAMG:  Solving for p, Initial residual = 1.089966e-05, Final residual = 8.7100345e-08, No Iterations 2
time step continuity errors : sum local = 8.2388145e-09, global = -6.3622282e-10, cumulative = 0.00019774311
ExecutionTime = 153.90176 s  ClockTime = 156 s

Time = 967s

smoothSolver:  Solving for Ux, Initial residual = 2.1777826e-06, Final residual = 8.0263817e-08, No Iterations 3
smoothSolver:  Solving for Uy, Initial residual = 8.1617356e-06, Final residual = 2.938632e-07, No Iterations 3
smoothSolver:  Solving for Uz, Initial residual = 6.2357771e-07, Final residual = 2.2695736e-08, No Iterations 3
GAMG:  Solving for p, Initial residual = 1.0776286e-05, Final residual = 8.6065803e-08, No Iterations 2
time step continuity errors : sum local = 8.1409464e-09, global = -6.3184228e-10, cumulative = 0.00019774248
ExecutionTime = 154.05468 s  ClockTime = 156 s

Time = 968s

smoothSolver:  Solving for Ux, Initial residual = 2.1522813e-06, Final residual = 7.9360641e-08, No Iterations 3
smoothSolver:  Solving for Uy, Initial residual = 8.0934076e-06, Final residual = 2.9139547e-07, No Iterations 3
smoothSolver:  Solving for Uz, Initial residual = 6.1682599e-07, Final residual = 2.2461937e-08, No Iterations 3
GAMG:  Solving for p, Initial residual = 1.0653924e-05, Final residual = 8.5041259e-08, No Iterations 2
time step continuity errors : sum local = 8.0440243e-09, global = -6.2749508e-10, cumulative = 0.00019774185
ExecutionTime = 154.20696 s  ClockTime = 156 s

Time = 969s

smoothSolver:  Solving for Ux, Initial residual = 2.1270062e-06, Final residual = 7.8466221e-08, No Iterations 3
smoothSolver:  Solving for Uy, Initial residual = 8.0255432e-06, Final residual = 2.8895702e-07, No Iterations 3
smoothSolver:  Solving for Uz, Initial residual = 6.1013222e-07, Final residual = 2.2229845e-08, No Iterations 3
GAMG:  Solving for p, Initial residual = 1.0532758e-05, Final residual = 8.40265e-08, No Iterations 2
time step continuity errors : sum local = 7.948028e-09, global = -6.2317477e-10, cumulative = 0.00019774123
ExecutionTime = 154.361 s  ClockTime = 156 s

Time = 970s

smoothSolver:  Solving for Ux, Initial residual = 2.1019356e-06, Final residual = 7.7577648e-08, No Iterations 3
smoothSolver:  Solving for Uy, Initial residual = 7.9581885e-06, Final residual = 2.8653948e-07, No Iterations 3
smoothSolver:  Solving for Uz, Initial residual = 6.0348887e-07, Final residual = 2.1999414e-08, No Iterations 3
GAMG:  Solving for p, Initial residual = 1.0412561e-05, Final residual = 8.3021069e-08, No Iterations 2
time step continuity errors : sum local = 7.8529144e-09, global = -6.1888194e-10, cumulative = 0.00019774061
ExecutionTime = 154.51705 s  ClockTime = 157 s

Time = 971s

smoothSolver:  Solving for Ux, Initial residual = 2.0770798e-06, Final residual = 7.6695395e-08, No Iterations 3
smoothSolver:  Solving for Uy, Initial residual = 7.8911198e-06, Final residual = 2.8414364e-07, No Iterations 3
smoothSolver:  Solving for Uz, Initial residual = 5.9689749e-07, Final residual = 2.1770874e-08, No Iterations 3
GAMG:  Solving for p, Initial residual = 1.0293372e-05, Final residual = 8.2025086e-08, No Iterations 2
time step continuity errors : sum local = 7.7586949e-09, global = -6.1462194e-10, cumulative = 0.00019774
ExecutionTime = 154.66846 s  ClockTime = 157 s

Time = 972s

smoothSolver:  Solving for Ux, Initial residual = 2.0524361e-06, Final residual = 7.5819094e-08, No Iterations 3
smoothSolver:  Solving for Uy, Initial residual = 7.824512e-06, Final residual = 2.8177557e-07, No Iterations 3
smoothSolver:  Solving for Uz, Initial residual = 5.9035551e-07, Final residual = 2.1544177e-08, No Iterations 3
GAMG:  Solving for p, Initial residual = 1.017518e-05, Final residual = 8.1040726e-08, No Iterations 2
time step continuity errors : sum local = 7.665575e-09, global = -6.1040176e-10, cumulative = 0.00019773939
ExecutionTime = 154.82077 s  ClockTime = 157 s

Time = 973s

smoothSolver:  Solving for Ux, Initial residual = 2.027995e-06, Final residual = 7.4948743e-08, No Iterations 3
smoothSolver:  Solving for Uy, Initial residual = 7.7582165e-06, Final residual = 2.7942906e-07, No Iterations 3
smoothSolver:  Solving for Uz, Initial residual = 5.838623e-07, Final residual = 2.1319475e-08, No Iterations 3
GAMG:  Solving for p, Initial residual = 1.0058027e-05, Final residual = 8.0070258e-08, No Iterations 2
time step continuity errors : sum local = 7.5737695e-09, global = -6.0622836e-10, cumulative = 0.00019773878
ExecutionTime = 154.97313 s  ClockTime = 157 s

Time = 974s

smoothSolver:  Solving for Ux, Initial residual = 2.0037607e-06, Final residual = 7.4084761e-08, No Iterations 3
smoothSolver:  Solving for Uy, Initial residual = 7.6922694e-06, Final residual = 2.7710468e-07, No Iterations 3
smoothSolver:  Solving for Uz, Initial residual = 5.7741886e-07, Final residual = 2.1096585e-08, No Iterations 3
GAMG:  Solving for p, Initial residual = 9.9417331e-06, Final residual = 7.9110328e-08, No Iterations 2
time step continuity errors : sum local = 7.4829611e-09, global = -6.0210367e-10, cumulative = 0.00019773818
ExecutionTime = 155.12626 s  ClockTime = 157 s


SIMPLE solution converged in 974 iterations

End

Finalising parallel run
