/*---------------------------------------------------------------------------*\
  =========                 |
  \\      /  F ield         | OpenFOAM: The Open Source CFD Toolbox
   \\    /   O peration     | Website:  https://openfoam.org
    \\  /    A nd           | Version:  11
     \\/     M anipulation  |
\*---------------------------------------------------------------------------*/
Build  : 11-e1fc8c682ae6
Exec   : foamRun -solver incompressibleFluid -parallel
Date   : Feb 08 2026
Time   : 01:49:43
Host   : "ip-172-31-18-192"
PID    : 123243
I/O    : uncollated
Case   : /home/ubuntu/cases/bifurcation_angle30_1000_ascii/Re200
nProcs : 16
Slaves : 
15
(
"ip-172-31-18-192.123244"
"ip-172-31-18-192.123245"
"ip-172-31-18-192.123246"
"ip-172-31-18-192.123247"
"ip-172-31-18-192.123248"
"ip-172-31-18-192.123249"
"ip-172-31-18-192.123250"
"ip-172-31-18-192.123251"
"ip-172-31-18-192.123252"
"ip-172-31-18-192.123253"
"ip-172-31-18-192.123254"
"ip-172-31-18-192.123255"
"ip-172-31-18-192.123256"
"ip-172-31-18-192.123257"
"ip-172-31-18-192.123258"
)

Pstream initialised with:
    floatTransfer      : false
    nProcsSimpleSum    : 0
    commsType          : nonBlocking
    polling iterations : 0
sigFpe : Enabling floating point exception trapping (FOAM_SIGFPE).
fileModificationChecking : Monitoring run-time modified files using timeStampMaster (fileModificationSkew 10)
allowSystemOperations : Allowing user-supplied system call operations

// * * * * * * * * * * * * * * * * * * * * * * * * * * * * * * * * * * * * * //
Create time

Create mesh for time = 0

Selecting solver incompressibleFluid
Selecting viscosity model Newtonian
Selecting turbulence model type laminar
Selecting laminar stress model Stokes
No MRF models present


SIMPLE: Convergence criteria found
        p: tolerance 1e-05
        U: tolerance 1e-05


SIMPLE: Operating solver in steady-state mode with 1 outer corrector
SIMPLE: Operating solver in SIMPLE mode



Starting time loop

wallShearStress wallShearStress:
    processing wall patches: 
        wall-fluid_domain

Time = 1s

smoothSolver:  Solving for Ux, Initial residual = 1, Final residual = 0.059387307, No Iterations 1
smoothSolver:  Solving for Uy, Initial residual = 1, Final residual = 0.049029978, No Iterations 1
smoothSolver:  Solving for Uz, Initial residual = 1, Final residual = 0.020275056, No Iterations 1
GAMG:  Solving for p, Initial residual = 1, Final residual = 0.008807656, No Iterations 10
time step continuity errors : sum local = 0.00011884746, global = -2.1816841e-06, cumulative = -2.1816841e-06
ExecutionTime = 0.827252 s  ClockTime = 1 s

Time = 2s

smoothSolver:  Solving for Ux, Initial residual = 0.22416572, Final residual = 0.016502347, No Iterations 2
smoothSolver:  Solving for Uy, Initial residual = 0.32051956, Final residual = 0.014542924, No Iterations 2
smoothSolver:  Solving for Uz, Initial residual = 0.24580437, Final residual = 0.019472044, No Iterations 2
GAMG:  Solving for p, Initial residual = 0.30979079, Final residual = 0.0019910887, No Iterations 6
time step continuity errors : sum local = 0.0030696128, global = -6.9656042e-05, cumulative = -7.1837726e-05
ExecutionTime = 1.061091 s  ClockTime = 1 s

Time = 3s

smoothSolver:  Solving for Ux, Initial residual = 0.24501939, Final residual = 0.0080468404, No Iterations 3
smoothSolver:  Solving for Uy, Initial residual = 0.13163872, Final residual = 0.0078376866, No Iterations 2
smoothSolver:  Solving for Uz, Initial residual = 0.46798214, Final residual = 0.016569569, No Iterations 3
GAMG:  Solving for p, Initial residual = 0.15849383, Final residual = 0.0010326635, No Iterations 3
time step continuity errors : sum local = 0.0062490079, global = 0.00010359465, cumulative = 3.1756923e-05
ExecutionTime = 1.262181 s  ClockTime = 1 s

Time = 4s

smoothSolver:  Solving for Ux, Initial residual = 0.15493062, Final residual = 0.0052606228, No Iterations 3
smoothSolver:  Solving for Uy, Initial residual = 0.070154261, Final residual = 0.0041911155, No Iterations 2
smoothSolver:  Solving for Uz, Initial residual = 0.30666242, Final residual = 0.010878169, No Iterations 3
GAMG:  Solving for p, Initial residual = 0.10809845, Final residual = 0.00092204321, No Iterations 5
time step continuity errors : sum local = 0.0055473775, global = 2.6143663e-05, cumulative = 5.7900586e-05
ExecutionTime = 1.539215 s  ClockTime = 1 s

Time = 5s

smoothSolver:  Solving for Ux, Initial residual = 0.0710023, Final residual = 0.0070632057, No Iterations 2
smoothSolver:  Solving for Uy, Initial residual = 0.18894527, Final residual = 0.0126613, No Iterations 2
smoothSolver:  Solving for Uz, Initial residual = 0.11276798, Final residual = 0.0040080178, No Iterations 3
GAMG:  Solving for p, Initial residual = 0.096079064, Final residual = 0.00073850891, No Iterations 6
time step continuity errors : sum local = 0.0022301173, global = 6.6428127e-05, cumulative = 0.00012432871
ExecutionTime = 1.77306 s  ClockTime = 2 s

Time = 6s

smoothSolver:  Solving for Ux, Initial residual = 0.065715369, Final residual = 0.0058217134, No Iterations 2
smoothSolver:  Solving for Uy, Initial residual = 0.40300468, Final residual = 0.026334448, No Iterations 2
smoothSolver:  Solving for Uz, Initial residual = 0.056456147, Final residual = 0.0019144904, No Iterations 3
GAMG:  Solving for p, Initial residual = 0.439321, Final residual = 0.0040396425, No Iterations 4
time step continuity errors : sum local = 0.0074091707, global = 0.00015107992, cumulative = 0.00027540863
ExecutionTime = 1.982118 s  ClockTime = 2 s

Time = 7s

smoothSolver:  Solving for Ux, Initial residual = 0.11817202, Final residual = 0.01171564, No Iterations 2
smoothSolver:  Solving for Uy, Initial residual = 0.24903224, Final residual = 0.015701281, No Iterations 2
smoothSolver:  Solving for Uz, Initial residual = 0.16351172, Final residual = 0.0057960981, No Iterations 3
GAMG:  Solving for p, Initial residual = 0.27672923, Final residual = 0.0027247605, No Iterations 3
time step continuity errors : sum local = 0.0088635806, global = -0.00013810889, cumulative = 0.00013729974
ExecutionTime = 2.180887 s  ClockTime = 2 s

Time = 8s

smoothSolver:  Solving for Ux, Initial residual = 0.10897953, Final residual = 0.0035575554, No Iterations 3
smoothSolver:  Solving for Uy, Initial residual = 0.13474358, Final residual = 0.0090534232, No Iterations 2
smoothSolver:  Solving for Uz, Initial residual = 0.17570457, Final residual = 0.0062297082, No Iterations 3
GAMG:  Solving for p, Initial residual = 0.21420568, Final residual = 0.0010804517, No Iterations 5
time step continuity errors : sum local = 0.0029949957, global = -1.4675562e-05, cumulative = 0.00012262418
ExecutionTime = 2.413196 s  ClockTime = 2 s

Time = 9s

smoothSolver:  Solving for Ux, Initial residual = 0.051019303, Final residual = 0.0048766852, No Iterations 2
smoothSolver:  Solving for Uy, Initial residual = 0.25507823, Final residual = 0.019775096, No Iterations 2
smoothSolver:  Solving for Uz, Initial residual = 0.06308037, Final residual = 0.0021725981, No Iterations 3
GAMG:  Solving for p, Initial residual = 0.22064434, Final residual = 0.00095053211, No Iterations 6
time step continuity errors : sum local = 0.001028493, global = -2.0916038e-05, cumulative = 0.00010170814
ExecutionTime = 2.647475 s  ClockTime = 2 s

Time = 10s

smoothSolver:  Solving for Ux, Initial residual = 0.057188078, Final residual = 0.0053928466, No Iterations 2
smoothSolver:  Solving for Uy, Initial residual = 0.39435831, Final residual = 0.02812892, No Iterations 2
smoothSolver:  Solving for Uz, Initial residual = 0.059407838, Final residual = 0.0020851151, No Iterations 3
GAMG:  Solving for p, Initial residual = 0.31776724, Final residual = 0.0026660286, No Iterations 4
time step continuity errors : sum local = 0.002972455, global = -4.2670593e-05, cumulative = 5.9037544e-05
ExecutionTime = 2.858268 s  ClockTime = 3 s

Time = 11s

smoothSolver:  Solving for Ux, Initial residual = 0.064407211, Final residual = 0.002033166, No Iterations 3
smoothSolver:  Solving for Uy, Initial residual = 0.22939851, Final residual = 0.015147703, No Iterations 2
smoothSolver:  Solving for Uz, Initial residual = 0.091071051, Final residual = 0.0032396731, No Iterations 3
GAMG:  Solving for p, Initial residual = 0.23196671, Final residual = 0.0015266213, No Iterations 4
time step continuity errors : sum local = 0.0024786289, global = 4.8382632e-06, cumulative = 6.3875807e-05
ExecutionTime = 3.070775 s  ClockTime = 3 s

Time = 12s

smoothSolver:  Solving for Ux, Initial residual = 0.040620107, Final residual = 0.0013447452, No Iterations 3
smoothSolver:  Solving for Uy, Initial residual = 0.1498483, Final residual = 0.011723248, No Iterations 2
smoothSolver:  Solving for Uz, Initial residual = 0.061521192, Final residual = 0.0021904426, No Iterations 3
GAMG:  Solving for p, Initial residual = 0.18065826, Final residual = 0.0012399366, No Iterations 5
time step continuity errors : sum local = 0.0015018808, global = 3.4126225e-06, cumulative = 6.728843e-05
ExecutionTime = 3.291834 s  ClockTime = 3 s

Time = 13s

smoothSolver:  Solving for Ux, Initial residual = 0.017203101, Final residual = 0.0015290935, No Iterations 2
smoothSolver:  Solving for Uy, Initial residual = 0.31321005, Final residual = 0.025821256, No Iterations 2
smoothSolver:  Solving for Uz, Initial residual = 0.01453316, Final residual = 0.0014465936, No Iterations 2
GAMG:  Solving for p, Initial residual = 0.29107886, Final residual = 0.0010692848, No Iterations 6
time step continuity errors : sum local = 0.00043396744, global = 9.4123548e-06, cumulative = 7.6700784e-05
ExecutionTime = 3.525725 s  ClockTime = 3 s

Time = 14s

smoothSolver:  Solving for Ux, Initial residual = 0.027472985, Final residual = 0.0026506047, No Iterations 2
smoothSolver:  Solving for Uy, Initial residual = 0.33184827, Final residual = 0.025171193, No Iterations 2
smoothSolver:  Solving for Uz, Initial residual = 0.029670728, Final residual = 0.0010402539, No Iterations 3
GAMG:  Solving for p, Initial residual = 0.31003773, Final residual = 0.0019750996, No Iterations 4
time step continuity errors : sum local = 0.0012058972, global = 1.3056662e-05, cumulative = 8.9757446e-05
ExecutionTime = 3.737827 s  ClockTime = 4 s

Time = 15s

smoothSolver:  Solving for Ux, Initial residual = 0.029822633, Final residual = 0.0009399197, No Iterations 3
smoothSolver:  Solving for Uy, Initial residual = 0.18058569, Final residual = 0.012601103, No Iterations 2
smoothSolver:  Solving for Uz, Initial residual = 0.041259439, Final residual = 0.0014577353, No Iterations 3
GAMG:  Solving for p, Initial residual = 0.23576503, Final residual = 0.001889586, No Iterations 4
time step continuity errors : sum local = 0.0013938787, global = -7.1298276e-06, cumulative = 8.2627619e-05
ExecutionTime = 3.95166 s  ClockTime = 4 s

Time = 16s

smoothSolver:  Solving for Ux, Initial residual = 0.018622848, Final residual = 0.00060249451, No Iterations 3
smoothSolver:  Solving for Uy, Initial residual = 0.14927698, Final residual = 0.012717826, No Iterations 2
smoothSolver:  Solving for Uz, Initial residual = 0.026281133, Final residual = 0.00092345858, No Iterations 3
GAMG:  Solving for p, Initial residual = 0.18746226, Final residual = 0.0015057954, No Iterations 5
time step continuity errors : sum local = 0.00072052111, global = -1.6556765e-06, cumulative = 8.0971942e-05
ExecutionTime = 4.174514 s  ClockTime = 4 s

Time = 17s

smoothSolver:  Solving for Ux, Initial residual = 0.0096259364, Final residual = 0.00084251559, No Iterations 2
smoothSolver:  Solving for Uy, Initial residual = 0.27631052, Final residual = 0.023218501, No Iterations 2
smoothSolver:  Solving for Uz, Initial residual = 0.0064093827, Final residual = 0.00057994767, No Iterations 2
GAMG:  Solving for p, Initial residual = 0.40869009, Final residual = 0.0031383955, No Iterations 5
time step continuity errors : sum local = 0.00049112784, global = -7.7263408e-07, cumulative = 8.0199308e-05
ExecutionTime = 4.395269 s  ClockTime = 4 s

Time = 18s

smoothSolver:  Solving for Ux, Initial residual = 0.015486938, Final residual = 0.00048625271, No Iterations 3
smoothSolver:  Solving for Uy, Initial residual = 0.23725478, Final residual = 0.018410928, No Iterations 2
smoothSolver:  Solving for Uz, Initial residual = 0.017891533, Final residual = 0.0006402903, No Iterations 3
GAMG:  Solving for p, Initial residual = 0.23508651, Final residual = 0.0010705344, No Iterations 4
time step continuity errors : sum local = 0.00042167278, global = -5.2380834e-06, cumulative = 7.4961225e-05
ExecutionTime = 4.606838 s  ClockTime = 4 s

Time = 19s

smoothSolver:  Solving for Ux, Initial residual = 0.013475927, Final residual = 0.00044228671, No Iterations 3
smoothSolver:  Solving for Uy, Initial residual = 0.13061468, Final residual = 0.0097753761, No Iterations 2
smoothSolver:  Solving for Uz, Initial residual = 0.019034699, Final residual = 0.00068319118, No Iterations 3
GAMG:  Solving for p, Initial residual = 0.18406485, Final residual = 0.0018188371, No Iterations 4
time step continuity errors : sum local = 0.00074126951, global = 6.5591073e-06, cumulative = 8.1520332e-05
ExecutionTime = 4.820364 s  ClockTime = 5 s

Time = 20s

smoothSolver:  Solving for Ux, Initial residual = 0.0077447244, Final residual = 0.000257108, No Iterations 3
smoothSolver:  Solving for Uy, Initial residual = 0.13354344, Final residual = 0.012054395, No Iterations 2
smoothSolver:  Solving for Uz, Initial residual = 0.0099587213, Final residual = 0.00035619936, No Iterations 3
GAMG:  Solving for p, Initial residual = 0.13225996, Final residual = 0.0012513696, No Iterations 5
time step continuity errors : sum local = 0.00033392684, global = 6.973154e-08, cumulative = 8.1590064e-05
ExecutionTime = 5.045003 s  ClockTime = 5 s

Time = 21s

smoothSolver:  Solving for Ux, Initial residual = 0.0053656403, Final residual = 0.00048247543, No Iterations 2
smoothSolver:  Solving for Uy, Initial residual = 0.1876202, Final residual = 0.016166402, No Iterations 2
smoothSolver:  Solving for Uz, Initial residual = 0.0038738534, Final residual = 0.00036735916, No Iterations 2
GAMG:  Solving for p, Initial residual = 0.33492125, Final residual = 0.0018689089, No Iterations 5
time step continuity errors : sum local = 0.00019696807, global = 4.0337487e-07, cumulative = 8.1993438e-05
ExecutionTime = 5.266625 s  ClockTime = 5 s

Time = 22s

smoothSolver:  Solving for Ux, Initial residual = 0.007162713, Final residual = 0.00070006047, No Iterations 2
smoothSolver:  Solving for Uy, Initial residual = 0.14385909, Final residual = 0.011518692, No Iterations 2
smoothSolver:  Solving for Uz, Initial residual = 0.0086581489, Final residual = 0.0002995362, No Iterations 3
GAMG:  Solving for p, Initial residual = 0.23012026, Final residual = 0.0014475552, No Iterations 4
time step continuity errors : sum local = 0.00028368967, global = -2.8747628e-06, cumulative = 7.9118676e-05
ExecutionTime = 5.476723 s  ClockTime = 5 s

Time = 23s

smoothSolver:  Solving for Ux, Initial residual = 0.0057611664, Final residual = 0.00018000641, No Iterations 3
smoothSolver:  Solving for Uy, Initial residual = 0.08072063, Final residual = 0.0064749581, No Iterations 2
smoothSolver:  Solving for Uz, Initial residual = 0.0082093135, Final residual = 0.00028442538, No Iterations 3
GAMG:  Solving for p, Initial residual = 0.18013913, Final residual = 0.00085949949, No Iterations 5
time step continuity errors : sum local = 0.00015827888, global = -4.9389404e-07, cumulative = 7.8624782e-05
ExecutionTime = 5.700641 s  ClockTime = 6 s

Time = 24s

smoothSolver:  Solving for Ux, Initial residual = 0.003346913, Final residual = 0.00032379228, No Iterations 2
smoothSolver:  Solving for Uy, Initial residual = 0.093126317, Final residual = 0.0085414318, No Iterations 2
smoothSolver:  Solving for Uz, Initial residual = 0.0035495019, Final residual = 0.00011541588, No Iterations 3
GAMG:  Solving for p, Initial residual = 0.14774857, Final residual = 0.0014166035, No Iterations 5
time step continuity errors : sum local = 0.00015020464, global = -1.4674702e-07, cumulative = 7.8478035e-05
ExecutionTime = 5.92298 s  ClockTime = 6 s

Time = 25s

smoothSolver:  Solving for Ux, Initial residual = 0.0038894686, Final residual = 0.0001217822, No Iterations 3
smoothSolver:  Solving for Uy, Initial residual = 0.10787097, Final residual = 0.0094458224, No Iterations 2
smoothSolver:  Solving for Uz, Initial residual = 0.0035761971, Final residual = 0.0001235698, No Iterations 3
GAMG:  Solving for p, Initial residual = 0.13526228, Final residual = 0.0013244008, No Iterations 4
time step continuity errors : sum local = 0.00018696711, global = -1.2606298e-06, cumulative = 7.7217405e-05
ExecutionTime = 6.133728 s  ClockTime = 6 s

Time = 26s

smoothSolver:  Solving for Ux, Initial residual = 0.0041317292, Final residual = 0.00013637203, No Iterations 3
smoothSolver:  Solving for Uy, Initial residual = 0.077038069, Final residual = 0.0065116207, No Iterations 2
smoothSolver:  Solving for Uz, Initial residual = 0.0050598623, Final residual = 0.00018199189, No Iterations 3
GAMG:  Solving for p, Initial residual = 0.12026061, Final residual = 0.00092467667, No Iterations 4
time step continuity errors : sum local = 0.00016208949, global = 4.5463249e-07, cumulative = 7.7672037e-05
ExecutionTime = 6.345147 s  ClockTime = 6 s

Time = 27s

smoothSolver:  Solving for Ux, Initial residual = 0.0033095754, Final residual = 0.00011248837, No Iterations 3
smoothSolver:  Solving for Uy, Initial residual = 0.050080249, Final residual = 0.0046093386, No Iterations 2
smoothSolver:  Solving for Uz, Initial residual = 0.0043262917, Final residual = 0.00015480398, No Iterations 3
GAMG:  Solving for p, Initial residual = 0.085303435, Final residual = 0.00048923173, No Iterations 5
time step continuity errors : sum local = 8.0049164e-05, global = 2.3597552e-08, cumulative = 7.7695635e-05
ExecutionTime = 6.568718 s  ClockTime = 6 s

Time = 28s

smoothSolver:  Solving for Ux, Initial residual = 0.0026459989, Final residual = 8.5740525e-05, No Iterations 3
smoothSolver:  Solving for Uy, Initial residual = 0.058053904, Final residual = 0.005523152, No Iterations 2
smoothSolver:  Solving for Uz, Initial residual = 0.0027359224, Final residual = 9.3469202e-05, No Iterations 3
GAMG:  Solving for p, Initial residual = 0.06366447, Final residual = 0.00053091236, No Iterations 5
time step continuity errors : sum local = 6.6836671e-05, global = 1.6484826e-08, cumulative = 7.771212e-05
ExecutionTime = 6.792987 s  ClockTime = 7 s

Time = 29s

smoothSolver:  Solving for Ux, Initial residual = 0.0023099846, Final residual = 0.00022699897, No Iterations 2
smoothSolver:  Solving for Uy, Initial residual = 0.058627105, Final residual = 0.0053361138, No Iterations 2
smoothSolver:  Solving for Uz, Initial residual = 0.0021436438, Final residual = 6.8559742e-05, No Iterations 3
GAMG:  Solving for p, Initial residual = 0.11549375, Final residual = 0.00085580962, No Iterations 4
time step continuity errors : sum local = 8.0047397e-05, global = 6.2163147e-07, cumulative = 7.8333751e-05
ExecutionTime = 7.008236 s  ClockTime = 7 s

Time = 30s

smoothSolver:  Solving for Ux, Initial residual = 0.0020693401, Final residual = 0.00020430584, No Iterations 2
smoothSolver:  Solving for Uy, Initial residual = 0.042241741, Final residual = 0.0038318341, No Iterations 2
smoothSolver:  Solving for Uz, Initial residual = 0.0022929086, Final residual = 7.4898099e-05, No Iterations 3
GAMG:  Solving for p, Initial residual = 0.11513012, Final residual = 0.00088977076, No Iterations 4
time step continuity errors : sum local = 8.222697e-05, global = -2.4482094e-07, cumulative = 7.808893e-05
ExecutionTime = 7.219449 s  ClockTime = 7 s

Time = 31s

smoothSolver:  Solving for Ux, Initial residual = 0.0018970483, Final residual = 6.0358262e-05, No Iterations 3
smoothSolver:  Solving for Uy, Initial residual = 0.033361335, Final residual = 0.0032690317, No Iterations 2
smoothSolver:  Solving for Uz, Initial residual = 0.0019841176, Final residual = 6.4876024e-05, No Iterations 3
GAMG:  Solving for p, Initial residual = 0.076922137, Final residual = 0.00041819882, No Iterations 5
time step continuity errors : sum local = 3.7901583e-05, global = -1.3760031e-07, cumulative = 7.795133e-05
ExecutionTime = 7.443566 s  ClockTime = 7 s

Time = 32s

smoothSolver:  Solving for Ux, Initial residual = 0.0020382329, Final residual = 6.6597161e-05, No Iterations 3
smoothSolver:  Solving for Uy, Initial residual = 0.037268189, Final residual = 0.0036560209, No Iterations 2
smoothSolver:  Solving for Uz, Initial residual = 0.0020699909, Final residual = 6.9940484e-05, No Iterations 3
GAMG:  Solving for p, Initial residual = 0.046125879, Final residual = 0.00025717987, No Iterations 5
time step continuity errors : sum local = 2.7851331e-05, global = -1.6054231e-07, cumulative = 7.7790788e-05
ExecutionTime = 7.667653 s  ClockTime = 8 s

Time = 33s

smoothSolver:  Solving for Ux, Initial residual = 0.0021312122, Final residual = 7.085665e-05, No Iterations 3
smoothSolver:  Solving for Uy, Initial residual = 0.035290097, Final residual = 0.0034157257, No Iterations 2
smoothSolver:  Solving for Uz, Initial residual = 0.0023699403, Final residual = 8.2146516e-05, No Iterations 3
GAMG:  Solving for p, Initial residual = 0.048401928, Final residual = 0.00028007159, No Iterations 4
time step continuity errors : sum local = 3.4350805e-05, global = -3.784655e-07, cumulative = 7.7412322e-05
ExecutionTime = 7.881303 s  ClockTime = 8 s

Time = 34s

smoothSolver:  Solving for Ux, Initial residual = 0.0020293682, Final residual = 6.8531459e-05, No Iterations 3
smoothSolver:  Solving for Uy, Initial residual = 0.028269284, Final residual = 0.0028212936, No Iterations 2
smoothSolver:  Solving for Uz, Initial residual = 0.0024106334, Final residual = 8.4009132e-05, No Iterations 3
GAMG:  Solving for p, Initial residual = 0.042517003, Final residual = 0.00036171797, No Iterations 4
time step continuity errors : sum local = 4.5630069e-05, global = 3.3106247e-07, cumulative = 7.7743385e-05
ExecutionTime = 8.096503 s  ClockTime = 8 s

Time = 35s

smoothSolver:  Solving for Ux, Initial residual = 0.0018842578, Final residual = 6.3658309e-05, No Iterations 3
smoothSolver:  Solving for Uy, Initial residual = 0.025709335, Final residual = 0.00083344946, No Iterations 3
smoothSolver:  Solving for Uz, Initial residual = 0.0022140393, Final residual = 7.6489097e-05, No Iterations 3
GAMG:  Solving for p, Initial residual = 0.032032877, Final residual = 0.00016125, No Iterations 5
time step continuity errors : sum local = 1.9503215e-05, global = 4.5547817e-09, cumulative = 7.7747939e-05
ExecutionTime = 8.322407 s  ClockTime = 8 s

Time = 36s

smoothSolver:  Solving for Ux, Initial residual = 0.001772203, Final residual = 5.8912395e-05, No Iterations 3
smoothSolver:  Solving for Uy, Initial residual = 0.026041198, Final residual = 0.00083042295, No Iterations 3
smoothSolver:  Solving for Uz, Initial residual = 0.0019708609, Final residual = 6.715701e-05, No Iterations 3
GAMG:  Solving for p, Initial residual = 0.03298076, Final residual = 0.00030148151, No Iterations 4
time step continuity errors : sum local = 3.3974176e-05, global = 3.1753245e-07, cumulative = 7.8065472e-05
ExecutionTime = 8.536957 s  ClockTime = 8 s

Time = 37s

smoothSolver:  Solving for Ux, Initial residual = 0.0016847345, Final residual = 5.5571649e-05, No Iterations 3
smoothSolver:  Solving for Uy, Initial residual = 0.024069418, Final residual = 0.00076594529, No Iterations 3
smoothSolver:  Solving for Uz, Initial residual = 0.0018353145, Final residual = 6.2043526e-05, No Iterations 3
GAMG:  Solving for p, Initial residual = 0.037898081, Final residual = 0.00020591888, No Iterations 4
time step continuity errors : sum local = 2.2145154e-05, global = 1.7159963e-07, cumulative = 7.8237071e-05
ExecutionTime = 8.752175 s  ClockTime = 9 s

Time = 38s

smoothSolver:  Solving for Ux, Initial residual = 0.0016321626, Final residual = 5.4161988e-05, No Iterations 3
smoothSolver:  Solving for Uy, Initial residual = 0.021544483, Final residual = 0.00070419508, No Iterations 3
smoothSolver:  Solving for Uz, Initial residual = 0.001796117, Final residual = 6.0786462e-05, No Iterations 3
GAMG:  Solving for p, Initial residual = 0.0342143, Final residual = 0.00025892559, No Iterations 4
time step continuity errors : sum local = 2.7815153e-05, global = -8.5024543e-08, cumulative = 7.8152047e-05
ExecutionTime = 8.966948 s  ClockTime = 9 s

Time = 39s

smoothSolver:  Solving for Ux, Initial residual = 0.001628075, Final residual = 5.4456775e-05, No Iterations 3
smoothSolver:  Solving for Uy, Initial residual = 0.020958596, Final residual = 0.00069397417, No Iterations 3
smoothSolver:  Solving for Uz, Initial residual = 0.0018116271, Final residual = 6.1714145e-05, No Iterations 3
GAMG:  Solving for p, Initial residual = 0.027678831, Final residual = 0.00023453813, No Iterations 4
time step continuity errors : sum local = 2.5975447e-05, global = -9.4536647e-08, cumulative = 7.805751e-05
ExecutionTime = 9.18173 s  ClockTime = 9 s

Time = 40s

smoothSolver:  Solving for Ux, Initial residual = 0.0016351909, Final residual = 5.5006898e-05, No Iterations 3
smoothSolver:  Solving for Uy, Initial residual = 0.020809529, Final residual = 0.00068671305, No Iterations 3
smoothSolver:  Solving for Uz, Initial residual = 0.0018519157, Final residual = 6.3592835e-05, No Iterations 3
GAMG:  Solving for p, Initial residual = 0.025429323, Final residual = 0.00018172785, No Iterations 4
time step continuity errors : sum local = 2.088722e-05, global = -1.0371204e-07, cumulative = 7.7953798e-05
ExecutionTime = 9.395978 s  ClockTime = 9 s

Time = 41s

smoothSolver:  Solving for Ux, Initial residual = 0.0016174564, Final residual = 5.4659615e-05, No Iterations 3
smoothSolver:  Solving for Uy, Initial residual = 0.019849179, Final residual = 0.0006580314, No Iterations 3
smoothSolver:  Solving for Uz, Initial residual = 0.0018676515, Final residual = 6.4441474e-05, No Iterations 3
GAMG:  Solving for p, Initial residual = 0.024875616, Final residual = 0.00017255249, No Iterations 4
time step continuity errors : sum local = 2.0277886e-05, global = 1.8779276e-07, cumulative = 7.8141591e-05
ExecutionTime = 9.616196 s  ClockTime = 10 s

Time = 42s

smoothSolver:  Solving for Ux, Initial residual = 0.0015809848, Final residual = 5.3537875e-05, No Iterations 3
smoothSolver:  Solving for Uy, Initial residual = 0.018828748, Final residual = 0.00063035028, No Iterations 3
smoothSolver:  Solving for Uz, Initial residual = 0.0018374865, Final residual = 6.3437461e-05, No Iterations 3
GAMG:  Solving for p, Initial residual = 0.023378917, Final residual = 0.0001957552, No Iterations 4
time step continuity errors : sum local = 2.3081589e-05, global = 1.2129522e-07, cumulative = 7.8262886e-05
ExecutionTime = 9.835151 s  ClockTime = 10 s

Time = 43s

smoothSolver:  Solving for Ux, Initial residual = 0.0015410151, Final residual = 5.208502e-05, No Iterations 3
smoothSolver:  Solving for Uy, Initial residual = 0.018275038, Final residual = 0.00061341039, No Iterations 3
smoothSolver:  Solving for Uz, Initial residual = 0.0017750792, Final residual = 6.1134364e-05, No Iterations 3
GAMG:  Solving for p, Initial residual = 0.022459142, Final residual = 0.00018690366, No Iterations 4
time step continuity errors : sum local = 2.1809235e-05, global = 1.1953685e-07, cumulative = 7.8382423e-05
ExecutionTime = 10.050711 s  ClockTime = 10 s

Time = 44s

smoothSolver:  Solving for Ux, Initial residual = 0.0015070688, Final residual = 5.0806306e-05, No Iterations 3
smoothSolver:  Solving for Uy, Initial residual = 0.01781238, Final residual = 0.00059707636, No Iterations 3
smoothSolver:  Solving for Uz, Initial residual = 0.00171271, Final residual = 5.8820036e-05, No Iterations 3
GAMG:  Solving for p, Initial residual = 0.022874997, Final residual = 0.00016931087, No Iterations 4
time step continuity errors : sum local = 1.9515149e-05, global = 1.5194737e-07, cumulative = 7.853437e-05
ExecutionTime = 10.266263 s  ClockTime = 10 s

Time = 45s

smoothSolver:  Solving for Ux, Initial residual = 0.001481211, Final residual = 4.9923357e-05, No Iterations 3
smoothSolver:  Solving for Uy, Initial residual = 0.017231644, Final residual = 0.00057905088, No Iterations 3
smoothSolver:  Solving for Uz, Initial residual = 0.0016701997, Final residual = 5.7298609e-05, No Iterations 3
GAMG:  Solving for p, Initial residual = 0.022851241, Final residual = 0.00019074432, No Iterations 3
time step continuity errors : sum local = 2.1883406e-05, global = 1.6834932e-07, cumulative = 7.870272e-05
ExecutionTime = 10.468591 s  ClockTime = 10 s

Time = 46s

smoothSolver:  Solving for Ux, Initial residual = 0.0014627909, Final residual = 4.939447e-05, No Iterations 3
smoothSolver:  Solving for Uy, Initial residual = 0.016724227, Final residual = 0.00056415809, No Iterations 3
smoothSolver:  Solving for Uz, Initial residual = 0.0016467046, Final residual = 5.6551996e-05, No Iterations 3
GAMG:  Solving for p, Initial residual = 0.021850879, Final residual = 0.00014940175, No Iterations 4
time step continuity errors : sum local = 1.7219981e-05, global = -9.3559828e-08, cumulative = 7.860916e-05
ExecutionTime = 10.682363 s  ClockTime = 11 s

Time = 47s

smoothSolver:  Solving for Ux, Initial residual = 0.0014512009, Final residual = 4.9111589e-05, No Iterations 3
smoothSolver:  Solving for Uy, Initial residual = 0.016378018, Final residual = 0.00055323775, No Iterations 3
smoothSolver:  Solving for Uz, Initial residual = 0.0016321682, Final residual = 5.615459e-05, No Iterations 3
GAMG:  Solving for p, Initial residual = 0.020871065, Final residual = 0.00014502902, No Iterations 4
time step continuity errors : sum local = 1.6866747e-05, global = -9.22392e-08, cumulative = 7.8516921e-05
ExecutionTime = 10.896256 s  ClockTime = 11 s

Time = 48s

smoothSolver:  Solving for Ux, Initial residual = 0.0014393736, Final residual = 4.8812721e-05, No Iterations 3
smoothSolver:  Solving for Uy, Initial residual = 0.016014812, Final residual = 0.00054138785, No Iterations 3
smoothSolver:  Solving for Uz, Initial residual = 0.0016203943, Final residual = 5.5866811e-05, No Iterations 3
GAMG:  Solving for p, Initial residual = 0.020212192, Final residual = 0.00018683987, No Iterations 3
time step continuity errors : sum local = 2.1939553e-05, global = -8.8557653e-08, cumulative = 7.8428363e-05
ExecutionTime = 11.099705 s  ClockTime = 11 s

Time = 49s

smoothSolver:  Solving for Ux, Initial residual = 0.0014236711, Final residual = 4.8348281e-05, No Iterations 3
smoothSolver:  Solving for Uy, Initial residual = 0.015590454, Final residual = 0.00052792367, No Iterations 3
smoothSolver:  Solving for Uz, Initial residual = 0.0016020106, Final residual = 5.5302805e-05, No Iterations 3
GAMG:  Solving for p, Initial residual = 0.019748714, Final residual = 0.00018144993, No Iterations 3
time step continuity errors : sum local = 2.1431488e-05, global = 3.8252894e-07, cumulative = 7.8810892e-05
ExecutionTime = 11.303257 s  ClockTime = 11 s

Time = 50s

smoothSolver:  Solving for Ux, Initial residual = 0.0014080716, Final residual = 4.7860578e-05, No Iterations 3
smoothSolver:  Solving for Uy, Initial residual = 0.01519368, Final residual = 0.0005151673, No Iterations 3
smoothSolver:  Solving for Uz, Initial residual = 0.0015808551, Final residual = 5.4622984e-05, No Iterations 3
GAMG:  Solving for p, Initial residual = 0.019344143, Final residual = 0.00016909867, No Iterations 4
time step continuity errors : sum local = 2.0055264e-05, global = 2.1200643e-07, cumulative = 7.9022898e-05
ExecutionTime = 11.519164 s  ClockTime = 11 s

Time = 51s

smoothSolver:  Solving for Ux, Initial residual = 0.0013918824, Final residual = 4.7292975e-05, No Iterations 3
smoothSolver:  Solving for Uy, Initial residual = 0.014861198, Final residual = 0.00050416399, No Iterations 3
smoothSolver:  Solving for Uz, Initial residual = 0.001554626, Final residual = 5.3710421e-05, No Iterations 3
GAMG:  Solving for p, Initial residual = 0.019137671, Final residual = 0.00016838567, No Iterations 4
time step continuity errors : sum local = 1.9978511e-05, global = 1.9640695e-07, cumulative = 7.9219305e-05
ExecutionTime = 11.734068 s  ClockTime = 12 s

Time = 52s

smoothSolver:  Solving for Ux, Initial residual = 0.0013764814, Final residual = 4.674566e-05, No Iterations 3
smoothSolver:  Solving for Uy, Initial residual = 0.01454469, Final residual = 0.00049359728, No Iterations 3
smoothSolver:  Solving for Uz, Initial residual = 0.0015267622, Final residual = 5.2735056e-05, No Iterations 3
GAMG:  Solving for p, Initial residual = 0.019052638, Final residual = 0.00015253205, No Iterations 4
time step continuity errors : sum local = 1.8084262e-05, global = 1.5636454e-07, cumulative = 7.937567e-05
ExecutionTime = 11.949311 s  ClockTime = 12 s

Time = 53s

smoothSolver:  Solving for Ux, Initial residual = 0.0013628172, Final residual = 4.6278666e-05, No Iterations 3
smoothSolver:  Solving for Uy, Initial residual = 0.014227481, Final residual = 0.00048316566, No Iterations 3
smoothSolver:  Solving for Uz, Initial residual = 0.0015012538, Final residual = 5.186052e-05, No Iterations 3
GAMG:  Solving for p, Initial residual = 0.018879497, Final residual = 0.00016101828, No Iterations 3
time step continuity errors : sum local = 1.9099427e-05, global = 3.0943581e-07, cumulative = 7.9685106e-05
ExecutionTime = 12.153683 s  ClockTime = 12 s

Time = 54s

smoothSolver:  Solving for Ux, Initial residual = 0.0013504162, Final residual = 4.588188e-05, No Iterations 3
smoothSolver:  Solving for Uy, Initial residual = 0.013904749, Final residual = 0.00047268417, No Iterations 3
smoothSolver:  Solving for Uz, Initial residual = 0.0014809697, Final residual = 5.1207469e-05, No Iterations 3
GAMG:  Solving for p, Initial residual = 0.018508755, Final residual = 0.00014787061, No Iterations 3
time step continuity errors : sum local = 1.759815e-05, global = 2.184401e-07, cumulative = 7.9903546e-05
ExecutionTime = 12.356443 s  ClockTime = 12 s

Time = 55s

smoothSolver:  Solving for Ux, Initial residual = 0.0013392025, Final residual = 4.5524943e-05, No Iterations 3
smoothSolver:  Solving for Uy, Initial residual = 0.013599904, Final residual = 0.00046267604, No Iterations 3
smoothSolver:  Solving for Uz, Initial residual = 0.0014619866, Final residual = 5.0596915e-05, No Iterations 3
GAMG:  Solving for p, Initial residual = 0.018151548, Final residual = 0.00015502087, No Iterations 3
time step continuity errors : sum local = 1.8518431e-05, global = 2.1780108e-07, cumulative = 8.0121347e-05
ExecutionTime = 12.558946 s  ClockTime = 12 s

Time = 56s

smoothSolver:  Solving for Ux, Initial residual = 0.0013291371, Final residual = 4.5208707e-05, No Iterations 3
smoothSolver:  Solving for Uy, Initial residual = 0.013309912, Final residual = 0.00045305292, No Iterations 3
smoothSolver:  Solving for Uz, Initial residual = 0.0014434512, Final residual = 4.9998459e-05, No Iterations 3
GAMG:  Solving for p, Initial residual = 0.017850799, Final residual = 0.00016484153, No Iterations 3
time step continuity errors : sum local = 1.9765882e-05, global = 3.081417e-07, cumulative = 8.0429489e-05
ExecutionTime = 12.762014 s  ClockTime = 13 s

Time = 57s

smoothSolver:  Solving for Ux, Initial residual = 0.0013198221, Final residual = 4.4912841e-05, No Iterations 3
smoothSolver:  Solving for Uy, Initial residual = 0.013032175, Final residual = 0.00044383338, No Iterations 3
smoothSolver:  Solving for Uz, Initial residual = 0.0014250914, Final residual = 4.9399831e-05, No Iterations 3
GAMG:  Solving for p, Initial residual = 0.017599376, Final residual = 0.00012905316, No Iterations 4
time step continuity errors : sum local = 1.5529131e-05, global = 1.675335e-07, cumulative = 8.0597022e-05
ExecutionTime = 12.980144 s  ClockTime = 13 s

Time = 58s

smoothSolver:  Solving for Ux, Initial residual = 0.0013106993, Final residual = 4.4607488e-05, No Iterations 3
smoothSolver:  Solving for Uy, Initial residual = 0.012773962, Final residual = 0.00043522979, No Iterations 3
smoothSolver:  Solving for Uz, Initial residual = 0.0014063033, Final residual = 4.8765005e-05, No Iterations 3
GAMG:  Solving for p, Initial residual = 0.017438152, Final residual = 0.0001321028, No Iterations 4
time step continuity errors : sum local = 1.5932628e-05, global = 1.6568521e-07, cumulative = 8.0762707e-05
ExecutionTime = 13.204803 s  ClockTime = 13 s

Time = 59s

smoothSolver:  Solving for Ux, Initial residual = 0.0013004946, Final residual = 4.4257357e-05, No Iterations 3
smoothSolver:  Solving for Uy, Initial residual = 0.012516861, Final residual = 0.00042672102, No Iterations 3
smoothSolver:  Solving for Uz, Initial residual = 0.0013880625, Final residual = 4.8148617e-05, No Iterations 3
GAMG:  Solving for p, Initial residual = 0.017255592, Final residual = 0.00015984566, No Iterations 3
time step continuity errors : sum local = 1.9318712e-05, global = 4.2897948e-07, cumulative = 8.1191687e-05
ExecutionTime = 13.408509 s  ClockTime = 13 s

Time = 60s

smoothSolver:  Solving for Ux, Initial residual = 0.0012896242, Final residual = 4.3894439e-05, No Iterations 3
smoothSolver:  Solving for Uy, Initial residual = 0.01225428, Final residual = 0.00041813765, No Iterations 3
smoothSolver:  Solving for Uz, Initial residual = 0.0013711848, Final residual = 4.7593036e-05, No Iterations 3
GAMG:  Solving for p, Initial residual = 0.016962375, Final residual = 0.00013377954, No Iterations 4
time step continuity errors : sum local = 1.6216771e-05, global = 1.559332e-07, cumulative = 8.134762e-05
ExecutionTime = 13.622943 s  ClockTime = 14 s

Time = 61s

smoothSolver:  Solving for Ux, Initial residual = 0.001279659, Final residual = 4.3552102e-05, No Iterations 3
smoothSolver:  Solving for Uy, Initial residual = 0.01200833, Final residual = 0.00041001639, No Iterations 3
smoothSolver:  Solving for Uz, Initial residual = 0.0013531843, Final residual = 4.6976834e-05, No Iterations 3
GAMG:  Solving for p, Initial residual = 0.016747995, Final residual = 0.000153842, No Iterations 3
time step continuity errors : sum local = 1.8684363e-05, global = 3.9683002e-07, cumulative = 8.174445e-05
ExecutionTime = 13.823634 s  ClockTime = 14 s

Time = 62s

smoothSolver:  Solving for Ux, Initial residual = 0.0012698781, Final residual = 4.323756e-05, No Iterations 3
smoothSolver:  Solving for Uy, Initial residual = 0.011761786, Final residual = 0.00040198329, No Iterations 3
smoothSolver:  Solving for Uz, Initial residual = 0.0013367327, Final residual = 4.6433885e-05, No Iterations 3
GAMG:  Solving for p, Initial residual = 0.016484239, Final residual = 0.00016365567, No Iterations 3
time step continuity errors : sum local = 1.9935527e-05, global = 3.9604516e-07, cumulative = 8.2140495e-05
ExecutionTime = 14.025835 s  ClockTime = 14 s

Time = 63s

smoothSolver:  Solving for Ux, Initial residual = 0.0012613611, Final residual = 4.29698e-05, No Iterations 3
smoothSolver:  Solving for Uy, Initial residual = 0.011526649, Final residual = 0.00039425141, No Iterations 3
smoothSolver:  Solving for Uz, Initial residual = 0.0013202293, Final residual = 4.5887723e-05, No Iterations 3
GAMG:  Solving for p, Initial residual = 0.016252894, Final residual = 0.00013036415, No Iterations 4
time step continuity errors : sum local = 1.5925511e-05, global = 1.465072e-07, cumulative = 8.2287002e-05
ExecutionTime = 14.238915 s  ClockTime = 14 s

Time = 64s

smoothSolver:  Solving for Ux, Initial residual = 0.0012541328, Final residual = 4.2732912e-05, No Iterations 3
smoothSolver:  Solving for Uy, Initial residual = 0.01130471, Final residual = 0.00038685348, No Iterations 3
smoothSolver:  Solving for Uz, Initial residual = 0.0013027582, Final residual = 4.5291062e-05, No Iterations 3
GAMG:  Solving for p, Initial residual = 0.01612337, Final residual = 0.00015816398, No Iterations 3
time step continuity errors : sum local = 1.9356259e-05, global = 3.5188147e-07, cumulative = 8.2638884e-05
ExecutionTime = 14.443664 s  ClockTime = 14 s

Time = 65s

smoothSolver:  Solving for Ux, Initial residual = 0.0012460165, Final residual = 4.2472463e-05, No Iterations 3
smoothSolver:  Solving for Uy, Initial residual = 0.011077484, Final residual = 0.00037942042, No Iterations 3
smoothSolver:  Solving for Uz, Initial residual = 0.0012870633, Final residual = 4.4777836e-05, No Iterations 3
GAMG:  Solving for p, Initial residual = 0.015917318, Final residual = 0.00011563216, No Iterations 4
time step continuity errors : sum local = 1.4190954e-05, global = 1.2942545e-07, cumulative = 8.2768309e-05
ExecutionTime = 14.657702 s  ClockTime = 15 s

Time = 66s

smoothSolver:  Solving for Ux, Initial residual = 0.0012384166, Final residual = 4.2220639e-05, No Iterations 3
smoothSolver:  Solving for Uy, Initial residual = 0.010859649, Final residual = 0.00037217379, No Iterations 3
smoothSolver:  Solving for Uz, Initial residual = 0.0012711449, Final residual = 4.4243256e-05, No Iterations 3
GAMG:  Solving for p, Initial residual = 0.015777538, Final residual = 0.00013914406, No Iterations 3
time step continuity errors : sum local = 1.7111427e-05, global = 3.1079207e-07, cumulative = 8.3079101e-05
ExecutionTime = 14.859607 s  ClockTime = 15 s

Time = 67s

smoothSolver:  Solving for Ux, Initial residual = 0.0012296943, Final residual = 4.1947272e-05, No Iterations 3
smoothSolver:  Solving for Uy, Initial residual = 0.010641303, Final residual = 0.00036492118, No Iterations 3
smoothSolver:  Solving for Uz, Initial residual = 0.0012567841, Final residual = 4.3779286e-05, No Iterations 3
GAMG:  Solving for p, Initial residual = 0.015562086, Final residual = 0.00014361405, No Iterations 3
time step continuity errors : sum local = 1.7712345e-05, global = 3.3320838e-07, cumulative = 8.341231e-05
ExecutionTime = 15.062809 s  ClockTime = 15 s

Time = 68s

smoothSolver:  Solving for Ux, Initial residual = 0.001221523, Final residual = 4.1697239e-05, No Iterations 3
smoothSolver:  Solving for Uy, Initial residual = 0.01043301, Final residual = 0.00035801728, No Iterations 3
smoothSolver:  Solving for Uz, Initial residual = 0.001242673, Final residual = 4.3321316e-05, No Iterations 3
GAMG:  Solving for p, Initial residual = 0.015352378, Final residual = 0.00011514193, No Iterations 4
time step continuity errors : sum local = 1.4240189e-05, global = 1.490814e-07, cumulative = 8.3561391e-05
ExecutionTime = 15.277083 s  ClockTime = 15 s

Time = 69s

smoothSolver:  Solving for Ux, Initial residual = 0.0012145888, Final residual = 4.1491061e-05, No Iterations 3
smoothSolver:  Solving for Uy, Initial residual = 0.010240284, Final residual = 0.00035159575, No Iterations 3
smoothSolver:  Solving for Uz, Initial residual = 0.0012279735, Final residual = 4.2824323e-05, No Iterations 3
GAMG:  Solving for p, Initial residual = 0.015233314, Final residual = 0.00014486715, No Iterations 3
time step continuity errors : sum local = 1.7949782e-05, global = 3.5322578e-07, cumulative = 8.3914617e-05
ExecutionTime = 15.479154 s  ClockTime = 15 s

Time = 70s

smoothSolver:  Solving for Ux, Initial residual = 0.0012068542, Final residual = 4.1273337e-05, No Iterations 3
smoothSolver:  Solving for Uy, Initial residual = 0.010046967, Final residual = 0.00034514408, No Iterations 3
smoothSolver:  Solving for Uz, Initial residual = 0.0012140634, Final residual = 4.2369935e-05, No Iterations 3
GAMG:  Solving for p, Initial residual = 0.015050736, Final residual = 0.00011331894, No Iterations 4
time step continuity errors : sum local = 1.4077181e-05, global = 1.4630176e-07, cumulative = 8.4060919e-05
ExecutionTime = 15.692111 s  ClockTime = 16 s

Time = 71s

smoothSolver:  Solving for Ux, Initial residual = 0.0012000052, Final residual = 4.1086186e-05, No Iterations 3
smoothSolver:  Solving for Uy, Initial residual = 0.0098561971, Final residual = 0.00033872144, No Iterations 3
smoothSolver:  Solving for Uz, Initial residual = 0.0011993068, Final residual = 4.1876723e-05, No Iterations 3
GAMG:  Solving for p, Initial residual = 0.014915977, Final residual = 0.00013721073, No Iterations 3
time step continuity errors : sum local = 1.7075473e-05, global = 3.264244e-07, cumulative = 8.4387343e-05
ExecutionTime = 15.89572 s  ClockTime = 16 s

Time = 72s

smoothSolver:  Solving for Ux, Initial residual = 0.0011922469, Final residual = 4.0877141e-05, No Iterations 3
smoothSolver:  Solving for Uy, Initial residual = 0.0096598544, Final residual = 0.00033211941, No Iterations 3
smoothSolver:  Solving for Uz, Initial residual = 0.0011856307, Final residual = 4.1440402e-05, No Iterations 3
GAMG:  Solving for p, Initial residual = 0.014722165, Final residual = 0.00014268346, No Iterations 3
time step continuity errors : sum local = 1.7802279e-05, global = 3.3101969e-07, cumulative = 8.4718363e-05
ExecutionTime = 16.097384 s  ClockTime = 16 s

Time = 73s

smoothSolver:  Solving for Ux, Initial residual = 0.0011849275, Final residual = 4.0681655e-05, No Iterations 3
smoothSolver:  Solving for Uy, Initial residual = 0.0094697977, Final residual = 0.00032571713, No Iterations 3
smoothSolver:  Solving for Uz, Initial residual = 0.0011721072, Final residual = 4.1007916e-05, No Iterations 3
GAMG:  Solving for p, Initial residual = 0.014548806, Final residual = 0.00011063422, No Iterations 4
time step continuity errors : sum local = 1.3837816e-05, global = 1.3608906e-07, cumulative = 8.4854452e-05
ExecutionTime = 16.313202 s  ClockTime = 16 s

Time = 74s

smoothSolver:  Solving for Ux, Initial residual = 0.001178535, Final residual = 4.0512795e-05, No Iterations 3
smoothSolver:  Solving for Uy, Initial residual = 0.0092923967, Final residual = 0.00031978973, No Iterations 3
smoothSolver:  Solving for Uz, Initial residual = 0.0011581245, Final residual = 4.0545383e-05, No Iterations 3
GAMG:  Solving for p, Initial residual = 0.014452278, Final residual = 0.00013677453, No Iterations 3
time step continuity errors : sum local = 1.7136217e-05, global = 3.0415438e-07, cumulative = 8.5158606e-05
ExecutionTime = 16.516852 s  ClockTime = 16 s

Time = 75s

smoothSolver:  Solving for Ux, Initial residual = 0.0011713166, Final residual = 4.0323772e-05, No Iterations 3
smoothSolver:  Solving for Uy, Initial residual = 0.0091206298, Final residual = 0.00031410683, No Iterations 3
smoothSolver:  Solving for Uz, Initial residual = 0.0011454591, Final residual = 4.0140021e-05, No Iterations 3
GAMG:  Solving for p, Initial residual = 0.014279469, Final residual = 0.00014002191, No Iterations 3
time step continuity errors : sum local = 1.7586632e-05, global = 3.0516384e-07, cumulative = 8.546377e-05
ExecutionTime = 16.717022 s  ClockTime = 17 s

Time = 76s

smoothSolver:  Solving for Ux, Initial residual = 0.0011644826, Final residual = 4.0143575e-05, No Iterations 3
smoothSolver:  Solving for Uy, Initial residual = 0.0089581511, Final residual = 0.00030875053, No Iterations 3
smoothSolver:  Solving for Uz, Initial residual = 0.0011330231, Final residual = 3.9737657e-05, No Iterations 3
GAMG:  Solving for p, Initial residual = 0.0141275, Final residual = 0.00010476241, No Iterations 4
time step continuity errors : sum local = 1.3189901e-05, global = 1.2996929e-07, cumulative = 8.5593739e-05
ExecutionTime = 16.932767 s  ClockTime = 17 s

Time = 77s

smoothSolver:  Solving for Ux, Initial residual = 0.0011585028, Final residual = 3.9982691e-05, No Iterations 3
smoothSolver:  Solving for Uy, Initial residual = 0.0088078435, Final residual = 0.00030375403, No Iterations 3
smoothSolver:  Solving for Uz, Initial residual = 0.0011201602, Final residual = 3.9307289e-05, No Iterations 3
GAMG:  Solving for p, Initial residual = 0.014030648, Final residual = 0.00013151361, No Iterations 3
time step continuity errors : sum local = 1.6585781e-05, global = 2.8374817e-07, cumulative = 8.5877487e-05
ExecutionTime = 17.13755 s  ClockTime = 17 s

Time = 78s

smoothSolver:  Solving for Ux, Initial residual = 0.0011514298, Final residual = 3.9788463e-05, No Iterations 3
smoothSolver:  Solving for Uy, Initial residual = 0.0086541339, Final residual = 0.00029863952, No Iterations 3
smoothSolver:  Solving for Uz, Initial residual = 0.0011082225, Final residual = 3.8922326e-05, No Iterations 3
GAMG:  Solving for p, Initial residual = 0.013858908, Final residual = 0.00013442337, No Iterations 3
time step continuity errors : sum local = 1.6993223e-05, global = 2.8924514e-07, cumulative = 8.6166733e-05
ExecutionTime = 17.339477 s  ClockTime = 17 s

Time = 79s

smoothSolver:  Solving for Ux, Initial residual = 0.0011446128, Final residual = 3.9598007e-05, No Iterations 3
smoothSolver:  Solving for Uy, Initial residual = 0.0084980818, Final residual = 0.00029345378, No Iterations 3
smoothSolver:  Solving for Uz, Initial residual = 0.0010963006, Final residual = 3.8534931e-05, No Iterations 3
GAMG:  Solving for p, Initial residual = 0.013702721, Final residual = 9.9575964e-05, No Iterations 4
time step continuity errors : sum local = 1.2617001e-05, global = 1.2827895e-07, cumulative = 8.6295012e-05
ExecutionTime = 17.553181 s  ClockTime = 18 s

Time = 80s

smoothSolver:  Solving for Ux, Initial residual = 0.0011386571, Final residual = 3.9424582e-05, No Iterations 3
smoothSolver:  Solving for Uy, Initial residual = 0.0083445802, Final residual = 0.00028831873, No Iterations 3
smoothSolver:  Solving for Uz, Initial residual = 0.001083903, Final residual = 3.8116753e-05, No Iterations 3
GAMG:  Solving for p, Initial residual = 0.013606968, Final residual = 0.000127566, No Iterations 3
time step continuity errors : sum local = 1.6189517e-05, global = 2.7713055e-07, cumulative = 8.6572142e-05
ExecutionTime = 17.754432 s  ClockTime = 18 s

Time = 81s

smoothSolver:  Solving for Ux, Initial residual = 0.0011317689, Final residual = 3.9218042e-05, No Iterations 3
smoothSolver:  Solving for Uy, Initial residual = 0.0081932804, Final residual = 0.00028330299, No Iterations 3
smoothSolver:  Solving for Uz, Initial residual = 0.0010724375, Final residual = 3.774631e-05, No Iterations 3
GAMG:  Solving for p, Initial residual = 0.013452652, Final residual = 0.00013028194, No Iterations 3
time step continuity errors : sum local = 1.6571327e-05, global = 2.855608e-07, cumulative = 8.6857703e-05
ExecutionTime = 17.975987 s  ClockTime = 18 s

Time = 82s

smoothSolver:  Solving for Ux, Initial residual = 0.0011252128, Final residual = 3.9015246e-05, No Iterations 3
smoothSolver:  Solving for Uy, Initial residual = 0.0080516172, Final residual = 0.00027857527, No Iterations 3
smoothSolver:  Solving for Uz, Initial residual = 0.0010611847, Final residual = 3.738075e-05, No Iterations 3
GAMG:  Solving for p, Initial residual = 0.01331791, Final residual = 9.4347277e-05, No Iterations 4
time step continuity errors : sum local = 1.2026902e-05, global = 1.2656691e-07, cumulative = 8.698427e-05
ExecutionTime = 18.193182 s  ClockTime = 18 s

Time = 83s

smoothSolver:  Solving for Ux, Initial residual = 0.0011195273, Final residual = 3.8832978e-05, No Iterations 3
smoothSolver:  Solving for Uy, Initial residual = 0.0079234438, Final residual = 0.00027424855, No Iterations 3
smoothSolver:  Solving for Uz, Initial residual = 0.0010496735, Final residual = 3.6994011e-05, No Iterations 3
GAMG:  Solving for p, Initial residual = 0.013234052, Final residual = 0.00012313752, No Iterations 3
time step continuity errors : sum local = 1.5722016e-05, global = 2.6668392e-07, cumulative = 8.7250954e-05
ExecutionTime = 18.399383 s  ClockTime = 18 s

Time = 84s

smoothSolver:  Solving for Ux, Initial residual = 0.0011129293, Final residual = 3.8619608e-05, No Iterations 3
smoothSolver:  Solving for Uy, Initial residual = 0.00779893, Final residual = 0.00027007483, No Iterations 3
smoothSolver:  Solving for Uz, Initial residual = 0.0010389427, Final residual = 3.6646469e-05, No Iterations 3
GAMG:  Solving for p, Initial residual = 0.013105268, Final residual = 0.00012561769, No Iterations 3
time step continuity errors : sum local = 1.607413e-05, global = 2.6954067e-07, cumulative = 8.7520494e-05
ExecutionTime = 18.600285 s  ClockTime = 19 s

Time = 85s

smoothSolver:  Solving for Ux, Initial residual = 0.0011066266, Final residual = 3.841329e-05, No Iterations 3
smoothSolver:  Solving for Uy, Initial residual = 0.0076794924, Final residual = 0.00026610775, No Iterations 3
smoothSolver:  Solving for Uz, Initial residual = 0.0010282939, Final residual = 3.6299092e-05, No Iterations 3
GAMG:  Solving for p, Initial residual = 0.012991948, Final residual = 8.8504669e-05, No Iterations 4
time step continuity errors : sum local = 1.1349703e-05, global = 1.2446951e-07, cumulative = 8.7644964e-05
ExecutionTime = 18.815398 s  ClockTime = 19 s

Time = 86s

smoothSolver:  Solving for Ux, Initial residual = 0.0011011826, Final residual = 3.8233079e-05, No Iterations 3
smoothSolver:  Solving for Uy, Initial residual = 0.0075681631, Final residual = 0.00026242103, No Iterations 3
smoothSolver:  Solving for Uz, Initial residual = 0.0010173464, Final residual = 3.5929805e-05, No Iterations 3
GAMG:  Solving for p, Initial residual = 0.01292432, Final residual = 0.00012079307, No Iterations 3
time step continuity errors : sum local = 1.5515009e-05, global = 2.462121e-07, cumulative = 8.7891176e-05
ExecutionTime = 19.017633 s  ClockTime = 19 s

Time = 87s

smoothSolver:  Solving for Ux, Initial residual = 0.0010947533, Final residual = 3.8021616e-05, No Iterations 3
smoothSolver:  Solving for Uy, Initial residual = 0.0074566349, Final residual = 0.00025872648, No Iterations 3
smoothSolver:  Solving for Uz, Initial residual = 0.0010071342, Final residual = 3.559392e-05, No Iterations 3
GAMG:  Solving for p, Initial residual = 0.01280641, Final residual = 0.0001235739, No Iterations 3
time step continuity errors : sum local = 1.5905925e-05, global = 2.5006639e-07, cumulative = 8.8141242e-05
ExecutionTime = 19.221173 s  ClockTime = 19 s

Time = 88s

smoothSolver:  Solving for Ux, Initial residual = 0.0010886037, Final residual = 3.7815848e-05, No Iterations 3
smoothSolver:  Solving for Uy, Initial residual = 0.0073496254, Final residual = 0.00025511604, No Iterations 3
smoothSolver:  Solving for Uz, Initial residual = 0.00099698006, Final residual = 3.5256771e-05, No Iterations 3
GAMG:  Solving for p, Initial residual = 0.012702625, Final residual = 8.3837223e-05, No Iterations 4
time step continuity errors : sum local = 1.0813556e-05, global = 1.2452568e-07, cumulative = 8.8265768e-05
ExecutionTime = 19.436363 s  ClockTime = 19 s

Time = 89s

smoothSolver:  Solving for Ux, Initial residual = 0.0010833368, Final residual = 3.763806e-05, No Iterations 3
smoothSolver:  Solving for Uy, Initial residual = 0.0072479754, Final residual = 0.00025165222, No Iterations 3
smoothSolver:  Solving for Uz, Initial residual = 0.0009865335, Final residual = 3.4899538e-05, No Iterations 3
GAMG:  Solving for p, Initial residual = 0.012648313, Final residual = 0.00011680145, No Iterations 3
time step continuity errors : sum local = 1.508911e-05, global = 2.3528627e-07, cumulative = 8.8501054e-05
ExecutionTime = 19.640814 s  ClockTime = 20 s

Time = 90s

smoothSolver:  Solving for Ux, Initial residual = 0.0010770541, Final residual = 3.7426429e-05, No Iterations 3
smoothSolver:  Solving for Uy, Initial residual = 0.0071411993, Final residual = 0.00024802908, No Iterations 3
smoothSolver:  Solving for Uz, Initial residual = 0.00097664169, Final residual = 3.4572879e-05, No Iterations 3
GAMG:  Solving for p, Initial residual = 0.012541674, Final residual = 0.00011817661, No Iterations 3
time step continuity errors : sum local = 1.5297981e-05, global = 2.42275e-07, cumulative = 8.8743329e-05
ExecutionTime = 19.842917 s  ClockTime = 20 s

Time = 91s

smoothSolver:  Solving for Ux, Initial residual = 0.001070992, Final residual = 3.7219887e-05, No Iterations 3
smoothSolver:  Solving for Uy, Initial residual = 0.0070375542, Final residual = 0.00024442996, No Iterations 3
smoothSolver:  Solving for Uz, Initial residual = 0.0009668632, Final residual = 3.4247302e-05, No Iterations 3
GAMG:  Solving for p, Initial residual = 0.012446205, Final residual = 0.00012312451, No Iterations 3
time step continuity errors : sum local = 1.5970615e-05, global = 2.5317559e-07, cumulative = 8.8996505e-05
ExecutionTime = 20.047943 s  ClockTime = 20 s

Time = 92s

smoothSolver:  Solving for Ux, Initial residual = 0.001065183, Final residual = 3.7023103e-05, No Iterations 3
smoothSolver:  Solving for Uy, Initial residual = 0.0069377883, Final residual = 0.00024095175, No Iterations 3
smoothSolver:  Solving for Uz, Initial residual = 0.00095718929, Final residual = 3.3923487e-05, No Iterations 3
GAMG:  Solving for p, Initial residual = 0.012341327, Final residual = 8.2591694e-05, No Iterations 4
time step continuity errors : sum local = 1.073387e-05, global = 1.1761584e-07, cumulative = 8.9114121e-05
ExecutionTime = 20.26239 s  ClockTime = 20 s

Time = 93s

smoothSolver:  Solving for Ux, Initial residual = 0.0010600957, Final residual = 3.6850356e-05, No Iterations 3
smoothSolver:  Solving for Uy, Initial residual = 0.0068463223, Final residual = 0.00023777447, No Iterations 3
smoothSolver:  Solving for Uz, Initial residual = 0.00094746057, Final residual = 3.3589033e-05, No Iterations 3
GAMG:  Solving for p, Initial residual = 0.012272392, Final residual = 0.00011155497, No Iterations 3
time step continuity errors : sum local = 1.451851e-05, global = 2.257046e-07, cumulative = 8.9339825e-05
ExecutionTime = 20.465842 s  ClockTime = 20 s

Time = 94s

smoothSolver:  Solving for Ux, Initial residual = 0.0010539832, Final residual = 3.6649539e-05, No Iterations 3
smoothSolver:  Solving for Uy, Initial residual = 0.006754274, Final residual = 0.00023459656, No Iterations 3
smoothSolver:  Solving for Uz, Initial residual = 0.00093826582, Final residual = 3.3286654e-05, No Iterations 3
GAMG:  Solving for p, Initial residual = 0.012165422, Final residual = 0.00010971957, No Iterations 3
time step continuity errors : sum local = 1.4307693e-05, global = 2.1795914e-07, cumulative = 8.9557785e-05
ExecutionTime = 20.667662 s  ClockTime = 21 s

Time = 95s

smoothSolver:  Solving for Ux, Initial residual = 0.0010479567, Final residual = 3.6454909e-05, No Iterations 3
smoothSolver:  Solving for Uy, Initial residual = 0.0066672764, Final residual = 0.00023159473, No Iterations 3
smoothSolver:  Solving for Uz, Initial residual = 0.00092918477, Final residual = 3.2986251e-05, No Iterations 3
GAMG:  Solving for p, Initial residual = 0.012054594, Final residual = 0.00011243251, No Iterations 3
time step continuity errors : sum local = 1.469065e-05, global = 2.1878143e-07, cumulative = 8.9776566e-05
ExecutionTime = 20.870947 s  ClockTime = 21 s

Time = 96s

smoothSolver:  Solving for Ux, Initial residual = 0.0010421361, Final residual = 3.6267521e-05, No Iterations 3
smoothSolver:  Solving for Uy, Initial residual = 0.0065853599, Final residual = 0.00022869677, No Iterations 3
smoothSolver:  Solving for Uz, Initial residual = 0.00092010916, Final residual = 3.2684204e-05, No Iterations 3
GAMG:  Solving for p, Initial residual = 0.011958854, Final residual = 0.00011650605, No Iterations 3
time step continuity errors : sum local = 1.5252374e-05, global = 2.2571306e-07, cumulative = 9.0002279e-05
ExecutionTime = 21.073726 s  ClockTime = 21 s

Time = 97s

smoothSolver:  Solving for Ux, Initial residual = 0.0010364641, Final residual = 3.6084107e-05, No Iterations 3
smoothSolver:  Solving for Uy, Initial residual = 0.0065061476, Final residual = 0.00022583794, No Iterations 3
smoothSolver:  Solving for Uz, Initial residual = 0.00091103731, Final residual = 3.237976e-05, No Iterations 3
GAMG:  Solving for p, Initial residual = 0.01187901, Final residual = 7.505428e-05, No Iterations 4
time step continuity errors : sum local = 9.8439384e-06, global = 1.0113803e-07, cumulative = 9.0103417e-05
ExecutionTime = 21.289498 s  ClockTime = 21 s

Time = 98s

smoothSolver:  Solving for Ux, Initial residual = 0.0010313118, Final residual = 3.5909985e-05, No Iterations 3
smoothSolver:  Solving for Uy, Initial residual = 0.0064320558, Final residual = 0.00022309939, No Iterations 3
smoothSolver:  Solving for Uz, Initial residual = 0.00090184552, Final residual = 3.2063049e-05, No Iterations 3
GAMG:  Solving for p, Initial residual = 0.011836449, Final residual = 0.00010448085, No Iterations 3
time step continuity errors : sum local = 1.3722451e-05, global = 1.9354481e-07, cumulative = 9.0296962e-05
ExecutionTime = 21.49115 s  ClockTime = 22 s

Time = 99s

smoothSolver:  Solving for Ux, Initial residual = 0.0010252141, Final residual = 3.5708613e-05, No Iterations 3
smoothSolver:  Solving for Uy, Initial residual = 0.0063532577, Final residual = 0.00022023204, No Iterations 3
smoothSolver:  Solving for Uz, Initial residual = 0.00089312273, Final residual = 3.1774419e-05, No Iterations 3
GAMG:  Solving for p, Initial residual = 0.011744644, Final residual = 0.00010281458, No Iterations 3
time step continuity errors : sum local = 1.3529114e-05, global = 1.8671505e-07, cumulative = 9.0483677e-05
ExecutionTime = 21.694557 s  ClockTime = 22 s

Time = 100s

smoothSolver:  Solving for Ux, Initial residual = 0.0010192388, Final residual = 3.5503169e-05, No Iterations 3
smoothSolver:  Solving for Uy, Initial residual = 0.0062784766, Final residual = 0.00021752056, No Iterations 3
smoothSolver:  Solving for Uz, Initial residual = 0.00088454845, Final residual = 3.1488704e-05, No Iterations 3
GAMG:  Solving for p, Initial residual = 0.011654227, Final residual = 0.000106185, No Iterations 3
time step continuity errors : sum local = 1.3998821e-05, global = 1.9084756e-07, cumulative = 9.0674524e-05
ExecutionTime = 21.896686 s  ClockTime = 22 s

Time = 101s

smoothSolver:  Solving for Ux, Initial residual = 0.001013557, Final residual = 3.5306858e-05, No Iterations 3
smoothSolver:  Solving for Uy, Initial residual = 0.0062083235, Final residual = 0.00021502449, No Iterations 3
smoothSolver:  Solving for Uz, Initial residual = 0.00087607732, Final residual = 3.1203791e-05, No Iterations 3
GAMG:  Solving for p, Initial residual = 0.011586731, Final residual = 0.00011158673, No Iterations 3
time step continuity errors : sum local = 1.4737713e-05, global = 2.0088858e-07, cumulative = 9.0875413e-05
ExecutionTime = 22.099748 s  ClockTime = 22 s

Time = 102s

smoothSolver:  Solving for Ux, Initial residual = 0.0010081401, Final residual = 3.5121241e-05, No Iterations 3
smoothSolver:  Solving for Uy, Initial residual = 0.0061454622, Final residual = 0.00021274503, No Iterations 3
smoothSolver:  Solving for Uz, Initial residual = 0.00086767795, Final residual = 3.0920121e-05, No Iterations 3
GAMG:  Solving for p, Initial residual = 0.01152372, Final residual = 7.0913749e-05, No Iterations 4
time step continuity errors : sum local = 9.3821805e-06, global = 1.0058987e-07, cumulative = 9.0976003e-05
ExecutionTime = 22.313516 s  ClockTime = 22 s

Time = 103s

smoothSolver:  Solving for Ux, Initial residual = 0.0010033969, Final residual = 3.4956175e-05, No Iterations 3
smoothSolver:  Solving for Uy, Initial residual = 0.006091995, Final residual = 0.00021072622, No Iterations 3
smoothSolver:  Solving for Uz, Initial residual = 0.0008592508, Final residual = 3.0628007e-05, No Iterations 3
GAMG:  Solving for p, Initial residual = 0.011487837, Final residual = 0.00010307101, No Iterations 3
time step continuity errors : sum local = 1.3655228e-05, global = 1.9296219e-07, cumulative = 9.1168965e-05
ExecutionTime = 22.517366 s  ClockTime = 23 s

Time = 104s

smoothSolver:  Solving for Ux, Initial residual = 0.0009976327, Final residual = 3.4763461e-05, No Iterations 3
smoothSolver:  Solving for Uy, Initial residual = 0.0060309833, Final residual = 0.00020847858, No Iterations 3
smoothSolver:  Solving for Uz, Initial residual = 0.00085112172, Final residual = 3.0355052e-05, No Iterations 3
GAMG:  Solving for p, Initial residual = 0.011395203, Final residual = 0.00010227727, No Iterations 3
time step continuity errors : sum local = 1.3574345e-05, global = 1.9150614e-07, cumulative = 9.1360471e-05
ExecutionTime = 22.720054 s  ClockTime = 23 s

Time = 105s

smoothSolver:  Solving for Ux, Initial residual = 0.00099196107, Final residual = 3.4572813e-05, No Iterations 3
smoothSolver:  Solving for Uy, Initial residual = 0.0059711088, Final residual = 0.00020625087, No Iterations 3
smoothSolver:  Solving for Uz, Initial residual = 0.00084307173, Final residual = 3.0083216e-05, No Iterations 3
GAMG:  Solving for p, Initial residual = 0.011295643, Final residual = 0.00010550924, No Iterations 3
time step continuity errors : sum local = 1.4028578e-05, global = 1.9680572e-07, cumulative = 9.1557277e-05
ExecutionTime = 22.924579 s  ClockTime = 23 s

Time = 106s

smoothSolver:  Solving for Ux, Initial residual = 0.00098653041, Final residual = 3.4390872e-05, No Iterations 3
smoothSolver:  Solving for Uy, Initial residual = 0.0059141473, Final residual = 0.00020417933, No Iterations 3
smoothSolver:  Solving for Uz, Initial residual = 0.00083508833, Final residual = 2.9811958e-05, No Iterations 3
GAMG:  Solving for p, Initial residual = 0.011194022, Final residual = 0.00010959118, No Iterations 3
time step continuity errors : sum local = 1.4596699e-05, global = 2.0476805e-07, cumulative = 9.1762045e-05
ExecutionTime = 23.127555 s  ClockTime = 23 s

Time = 107s

smoothSolver:  Solving for Ux, Initial residual = 0.00098133657, Final residual = 3.4215219e-05, No Iterations 3
smoothSolver:  Solving for Uy, Initial residual = 0.0058618546, Final residual = 0.00020226413, No Iterations 3
smoothSolver:  Solving for Uz, Initial residual = 0.00082721144, Final residual = 2.9540407e-05, No Iterations 3
GAMG:  Solving for p, Initial residual = 0.011113607, Final residual = 6.7166769e-05, No Iterations 4
time step continuity errors : sum local = 8.961026e-06, global = 1.0164945e-07, cumulative = 9.1863694e-05
ExecutionTime = 23.342534 s  ClockTime = 23 s

Time = 108s

smoothSolver:  Solving for Ux, Initial residual = 0.0009768437, Final residual = 3.4057565e-05, No Iterations 3
smoothSolver:  Solving for Uy, Initial residual = 0.0058195604, Final residual = 0.00020064329, No Iterations 3
smoothSolver:  Solving for Uz, Initial residual = 0.00081944317, Final residual = 2.9265007e-05, No Iterations 3
GAMG:  Solving for p, Initial residual = 0.011075013, Final residual = 0.00010032866, No Iterations 3
time step continuity errors : sum local = 1.3402882e-05, global = 1.7930828e-07, cumulative = 9.2043003e-05
ExecutionTime = 23.5436 s  ClockTime = 24 s

Time = 109s

smoothSolver:  Solving for Ux, Initial residual = 0.00097134606, Final residual = 3.3869776e-05, No Iterations 3
smoothSolver:  Solving for Uy, Initial residual = 0.0057694774, Final residual = 0.00019878486, No Iterations 3
smoothSolver:  Solving for Uz, Initial residual = 0.00081193562, Final residual = 2.9006844e-05, No Iterations 3
GAMG:  Solving for p, Initial residual = 0.010989345, Final residual = 9.9108207e-05, No Iterations 3
time step continuity errors : sum local = 1.3261924e-05, global = 1.7028477e-07, cumulative = 9.2213287e-05
ExecutionTime = 23.746151 s  ClockTime = 24 s

Time = 110s

smoothSolver:  Solving for Ux, Initial residual = 0.00096594938, Final residual = 3.3684356e-05, No Iterations 3
smoothSolver:  Solving for Uy, Initial residual = 0.0057210889, Final residual = 0.00019696995, No Iterations 3
smoothSolver:  Solving for Uz, Initial residual = 0.00080452172, Final residual = 2.8750448e-05, No Iterations 3
GAMG:  Solving for p, Initial residual = 0.010913143, Final residual = 0.00010156267, No Iterations 3
time step continuity errors : sum local = 1.3613093e-05, global = 1.7015597e-07, cumulative = 9.2383443e-05
ExecutionTime = 23.947742 s  ClockTime = 24 s

Time = 111s

smoothSolver:  Solving for Ux, Initial residual = 0.00096085223, Final residual = 3.3510925e-05, No Iterations 3
smoothSolver:  Solving for Uy, Initial residual = 0.0056750927, Final residual = 0.00019524629, No Iterations 3
smoothSolver:  Solving for Uz, Initial residual = 0.00079716326, Final residual = 2.8495324e-05, No Iterations 3
GAMG:  Solving for p, Initial residual = 0.010835523, Final residual = 0.00010542788, No Iterations 3
time step continuity errors : sum local = 1.415452e-05, global = 1.7652447e-07, cumulative = 9.2559968e-05
ExecutionTime = 24.149881 s  ClockTime = 24 s

Time = 112s

smoothSolver:  Solving for Ux, Initial residual = 0.0009560423, Final residual = 3.3347492e-05, No Iterations 3
smoothSolver:  Solving for Uy, Initial residual = 0.0056316995, Final residual = 0.00019361675, No Iterations 3
smoothSolver:  Solving for Uz, Initial residual = 0.0007898971, Final residual = 2.8241603e-05, No Iterations 3
GAMG:  Solving for p, Initial residual = 0.010765791, Final residual = 6.2354439e-05, No Iterations 4
time step continuity errors : sum local = 8.3848725e-06, global = 9.5383295e-08, cumulative = 9.2655351e-05
ExecutionTime = 24.377852 s  ClockTime = 24 s

Time = 113s

smoothSolver:  Solving for Ux, Initial residual = 0.00095195727, Final residual = 3.3206917e-05, No Iterations 3
smoothSolver:  Solving for Uy, Initial residual = 0.0055971851, Final residual = 0.00019223389, No Iterations 3
smoothSolver:  Solving for Uz, Initial residual = 0.0007827851, Final residual = 2.7986612e-05, No Iterations 3
GAMG:  Solving for p, Initial residual = 0.010725509, Final residual = 9.7929849e-05, No Iterations 3
time step continuity errors : sum local = 1.318575e-05, global = 1.6211151e-07, cumulative = 9.2817463e-05
ExecutionTime = 24.617743 s  ClockTime = 25 s

Time = 114s

smoothSolver:  Solving for Ux, Initial residual = 0.0009467219, Final residual = 3.3033699e-05, No Iterations 3
smoothSolver:  Solving for Uy, Initial residual = 0.0055554197, Final residual = 0.00019060667, No Iterations 3
smoothSolver:  Solving for Uz, Initial residual = 0.00077579974, Final residual = 2.7743826e-05, No Iterations 3
GAMG:  Solving for p, Initial residual = 0.010668819, Final residual = 9.712718e-05, No Iterations 3
time step continuity errors : sum local = 1.3098612e-05, global = 1.5945028e-07, cumulative = 9.2976913e-05
ExecutionTime = 24.822769 s  ClockTime = 25 s

Time = 115s

smoothSolver:  Solving for Ux, Initial residual = 0.00094154532, Final residual = 3.2861556e-05, No Iterations 3
smoothSolver:  Solving for Uy, Initial residual = 0.0055147265, Final residual = 0.00018903974, No Iterations 3
smoothSolver:  Solving for Uz, Initial residual = 0.00076889152, Final residual = 2.7503093e-05, No Iterations 3
GAMG:  Solving for p, Initial residual = 0.01061503, Final residual = 9.9660906e-05, No Iterations 3
time step continuity errors : sum local = 1.3461808e-05, global = 1.6267144e-07, cumulative = 9.3139584e-05
ExecutionTime = 25.025435 s  ClockTime = 25 s

Time = 116s

smoothSolver:  Solving for Ux, Initial residual = 0.00093661027, Final residual = 3.2700719e-05, No Iterations 3
smoothSolver:  Solving for Uy, Initial residual = 0.0054755679, Final residual = 0.00018755823, No Iterations 3
smoothSolver:  Solving for Uz, Initial residual = 0.00076202313, Final residual = 2.7262159e-05, No Iterations 3
GAMG:  Solving for p, Initial residual = 0.0105442, Final residual = 0.00010307628, No Iterations 3
time step continuity errors : sum local = 1.3944781e-05, global = 1.6908267e-07, cumulative = 9.3308667e-05
ExecutionTime = 25.225371 s  ClockTime = 25 s

Time = 117s

smoothSolver:  Solving for Ux, Initial residual = 0.00093191387, Final residual = 3.2548386e-05, No Iterations 3
smoothSolver:  Solving for Uy, Initial residual = 0.0054391175, Final residual = 0.00018619388, No Iterations 3
smoothSolver:  Solving for Uz, Initial residual = 0.000755213, Final residual = 2.7021931e-05, No Iterations 3
GAMG:  Solving for p, Initial residual = 0.010482467, Final residual = 5.9154737e-05, No Iterations 4
time step continuity errors : sum local = 8.0148395e-06, global = 9.5228108e-08, cumulative = 9.3403895e-05
ExecutionTime = 25.440862 s  ClockTime = 26 s

Time = 118s

smoothSolver:  Solving for Ux, Initial residual = 0.00092791393, Final residual = 3.241541e-05, No Iterations 3
smoothSolver:  Solving for Uy, Initial residual = 0.0054105129, Final residual = 0.0001851018, No Iterations 3
smoothSolver:  Solving for Uz, Initial residual = 0.000748586, Final residual = 2.6781173e-05, No Iterations 3
GAMG:  Solving for p, Initial residual = 0.010436112, Final residual = 9.4293517e-05, No Iterations 3
time step continuity errors : sum local = 1.2791624e-05, global = 1.5393707e-07, cumulative = 9.3557832e-05
ExecutionTime = 25.642002 s  ClockTime = 26 s

Time = 119s

smoothSolver:  Solving for Ux, Initial residual = 0.00092288772, Final residual = 3.2250247e-05, No Iterations 3
smoothSolver:  Solving for Uy, Initial residual = 0.0053764098, Final residual = 0.00018386489, No Iterations 3
smoothSolver:  Solving for Uz, Initial residual = 0.00074210448, Final residual = 2.655307e-05, No Iterations 3
GAMG:  Solving for p, Initial residual = 0.010371653, Final residual = 9.3242343e-05, No Iterations 3
time step continuity errors : sum local = 1.2668237e-05, global = 1.4604523e-07, cumulative = 9.3703878e-05
ExecutionTime = 25.847454 s  ClockTime = 26 s

Time = 120s

smoothSolver:  Solving for Ux, Initial residual = 0.00091797279, Final residual = 3.20858e-05, No Iterations 3
smoothSolver:  Solving for Uy, Initial residual = 0.0053470857, Final residual = 0.00018280559, No Iterations 3
smoothSolver:  Solving for Uz, Initial residual = 0.00073580097, Final residual = 2.6330582e-05, No Iterations 3
GAMG:  Solving for p, Initial residual = 0.010317846, Final residual = 9.5534924e-05, No Iterations 3
time step continuity errors : sum local = 1.2999269e-05, global = 1.4383827e-07, cumulative = 9.3847716e-05
ExecutionTime = 26.055506 s  ClockTime = 26 s

Time = 121s

smoothSolver:  Solving for Ux, Initial residual = 0.00091331705, Final residual = 3.1925831e-05, No Iterations 3
smoothSolver:  Solving for Uy, Initial residual = 0.0053223692, Final residual = 0.00018190631, No Iterations 3
smoothSolver:  Solving for Uz, Initial residual = 0.00072960556, Final residual = 2.6110181e-05, No Iterations 3
GAMG:  Solving for p, Initial residual = 0.01026408, Final residual = 9.890019e-05, No Iterations 3
time step continuity errors : sum local = 1.3477196e-05, global = 1.4656071e-07, cumulative = 9.3994277e-05
ExecutionTime = 26.258814 s  ClockTime = 26 s

Time = 122s

smoothSolver:  Solving for Ux, Initial residual = 0.00090893542, Final residual = 3.1769614e-05, No Iterations 3
smoothSolver:  Solving for Uy, Initial residual = 0.0053004246, Final residual = 0.00018112332, No Iterations 3
smoothSolver:  Solving for Uz, Initial residual = 0.00072346234, Final residual = 2.5890728e-05, No Iterations 3
GAMG:  Solving for p, Initial residual = 0.010211054, Final residual = 0.00010145759, No Iterations 3
time step continuity errors : sum local = 1.3845511e-05, global = 1.481446e-07, cumulative = 9.4142421e-05
ExecutionTime = 26.462721 s  ClockTime = 27 s

Time = 123s

smoothSolver:  Solving for Ux, Initial residual = 0.00090473677, Final residual = 3.1616496e-05, No Iterations 3
smoothSolver:  Solving for Uy, Initial residual = 0.0052773491, Final residual = 0.00018032646, No Iterations 3
smoothSolver:  Solving for Uz, Initial residual = 0.00071734224, Final residual = 2.5671934e-05, No Iterations 3
GAMG:  Solving for p, Initial residual = 0.010162621, Final residual = 5.5836291e-05, No Iterations 4
time step continuity errors : sum local = 7.6302711e-06, global = 8.1469042e-08, cumulative = 9.422389e-05
ExecutionTime = 26.676893 s  ClockTime = 27 s

Time = 124s

smoothSolver:  Solving for Ux, Initial residual = 0.00090114153, Final residual = 3.1482147e-05, No Iterations 3
smoothSolver:  Solving for Uy, Initial residual = 0.0052573945, Final residual = 0.00017957242, No Iterations 3
smoothSolver:  Solving for Uz, Initial residual = 0.00071138115, Final residual = 2.5453663e-05, No Iterations 3
GAMG:  Solving for p, Initial residual = 0.010154367, Final residual = 9.1368541e-05, No Iterations 3
time step continuity errors : sum local = 1.2500615e-05, global = 1.3273412e-07, cumulative = 9.4356624e-05
ExecutionTime = 26.880405 s  ClockTime = 27 s

Time = 125s

smoothSolver:  Solving for Ux, Initial residual = 0.00089627, Final residual = 3.1314471e-05, No Iterations 3
smoothSolver:  Solving for Uy, Initial residual = 0.0052257307, Final residual = 0.00017843437, No Iterations 3
smoothSolver:  Solving for Uz, Initial residual = 0.0007053494, Final residual = 2.5241006e-05, No Iterations 3
GAMG:  Solving for p, Initial residual = 0.010099053, Final residual = 9.0475296e-05, No Iterations 3
time step continuity errors : sum local = 1.2395955e-05, global = 1.3093497e-07, cumulative = 9.4487559e-05
ExecutionTime = 27.083357 s  ClockTime = 27 s

Time = 126s

smoothSolver:  Solving for Ux, Initial residual = 0.00089141911, Final residual = 3.1149724e-05, No Iterations 3
smoothSolver:  Solving for Uy, Initial residual = 0.0051939865, Final residual = 0.00017729114, No Iterations 3
smoothSolver:  Solving for Uz, Initial residual = 0.00069934812, Final residual = 2.5029065e-05, No Iterations 3
GAMG:  Solving for p, Initial residual = 0.0100084, Final residual = 9.2693445e-05, No Iterations 3
time step continuity errors : sum local = 1.2717446e-05, global = 1.3366145e-07, cumulative = 9.4621221e-05
ExecutionTime = 27.285962 s  ClockTime = 27 s

Time = 127s

smoothSolver:  Solving for Ux, Initial residual = 0.00088683789, Final residual = 3.0993675e-05, No Iterations 3
smoothSolver:  Solving for Uy, Initial residual = 0.0051649654, Final residual = 0.00017621805, No Iterations 3
smoothSolver:  Solving for Uz, Initial residual = 0.0006933568, Final residual = 2.4816733e-05, No Iterations 3
GAMG:  Solving for p, Initial residual = 0.0099167305, Final residual = 9.5633054e-05, No Iterations 3
time step continuity errors : sum local = 1.3138219e-05, global = 1.4006545e-07, cumulative = 9.4761286e-05
ExecutionTime = 27.489176 s  ClockTime = 28 s

Time = 128s

smoothSolver:  Solving for Ux, Initial residual = 0.00088252438, Final residual = 3.084586e-05, No Iterations 3
smoothSolver:  Solving for Uy, Initial residual = 0.0051378033, Final residual = 0.0001752421, No Iterations 3
smoothSolver:  Solving for Uz, Initial residual = 0.00068742368, Final residual = 2.4604831e-05, No Iterations 3
GAMG:  Solving for p, Initial residual = 0.0098428097, Final residual = 9.7522169e-05, No Iterations 3
time step continuity errors : sum local = 1.3414938e-05, global = 1.4748996e-07, cumulative = 9.4908776e-05
ExecutionTime = 27.693921 s  ClockTime = 28 s

Time = 129s

smoothSolver:  Solving for Ux, Initial residual = 0.00087838635, Final residual = 3.0701389e-05, No Iterations 3
smoothSolver:  Solving for Uy, Initial residual = 0.005112125, Final residual = 0.00017435491, No Iterations 3
smoothSolver:  Solving for Uz, Initial residual = 0.00068163385, Final residual = 2.4396664e-05, No Iterations 3
GAMG:  Solving for p, Initial residual = 0.0097792736, Final residual = 9.7716092e-05, No Iterations 3
time step continuity errors : sum local = 1.3458287e-05, global = 1.5167603e-07, cumulative = 9.5060452e-05
ExecutionTime = 27.897251 s  ClockTime = 28 s

Time = 130s

smoothSolver:  Solving for Ux, Initial residual = 0.00087431433, Final residual = 3.0555428e-05, No Iterations 3
smoothSolver:  Solving for Uy, Initial residual = 0.0050884871, Final residual = 0.00017354277, No Iterations 3
smoothSolver:  Solving for Uz, Initial residual = 0.00067601916, Final residual = 2.419373e-05, No Iterations 3
[...]
GAMG:  Solving for p, Initial residual = 1.2617723e-05, Final residual = 1.171049e-07, No Iterations 2
time step continuity errors : sum local = 1.9118737e-08, global = -5.1995285e-10, cumulative = 0.00011005918
ExecutionTime = 213.86256 s  ClockTime = 216 s

Time = 1065s

smoothSolver:  Solving for Ux, Initial residual = 1.8413887e-06, Final residual = 6.7899415e-08, No Iterations 3
smoothSolver:  Solving for Uy, Initial residual = 1.267905e-05, Final residual = 4.7313246e-07, No Iterations 3
smoothSolver:  Solving for Uz, Initial residual = 6.0323011e-07, Final residual = 2.2487908e-08, No Iterations 3
GAMG:  Solving for p, Initial residual = 1.2507379e-05, Final residual = 1.1613647e-07, No Iterations 2
time step continuity errors : sum local = 1.8960614e-08, global = -4.9682429e-10, cumulative = 0.00011005869
ExecutionTime = 214.05221 s  ClockTime = 216 s

Time = 1066s

smoothSolver:  Solving for Ux, Initial residual = 1.8243103e-06, Final residual = 6.7246895e-08, No Iterations 3
smoothSolver:  Solving for Uy, Initial residual = 1.2592904e-05, Final residual = 4.7052422e-07, No Iterations 3
smoothSolver:  Solving for Uz, Initial residual = 5.9689441e-07, Final residual = 2.2258454e-08, No Iterations 3
GAMG:  Solving for p, Initial residual = 1.2397767e-05, Final residual = 1.1516507e-07, No Iterations 2
time step continuity errors : sum local = 1.8802007e-08, global = -4.7449554e-10, cumulative = 0.00011005821
ExecutionTime = 214.24584 s  ClockTime = 217 s

Time = 1067s

smoothSolver:  Solving for Ux, Initial residual = 1.8073959e-06, Final residual = 6.6601871e-08, No Iterations 3
smoothSolver:  Solving for Uy, Initial residual = 1.2507027e-05, Final residual = 4.679058e-07, No Iterations 3
smoothSolver:  Solving for Uz, Initial residual = 5.9060744e-07, Final residual = 2.2030457e-08, No Iterations 3
GAMG:  Solving for p, Initial residual = 1.2288598e-05, Final residual = 1.1418507e-07, No Iterations 2
time step continuity errors : sum local = 1.8641995e-08, global = -4.5300448e-10, cumulative = 0.00011005776
ExecutionTime = 214.43587 s  ClockTime = 217 s

Time = 1068s

smoothSolver:  Solving for Ux, Initial residual = 1.7905959e-06, Final residual = 6.5964822e-08, No Iterations 3
smoothSolver:  Solving for Uy, Initial residual = 1.2421389e-05, Final residual = 4.6528287e-07, No Iterations 3
smoothSolver:  Solving for Uz, Initial residual = 5.8436526e-07, Final residual = 2.1803716e-08, No Iterations 3
GAMG:  Solving for p, Initial residual = 1.218008e-05, Final residual = 1.1319578e-07, No Iterations 2
time step continuity errors : sum local = 1.8480469e-08, global = -4.3231882e-10, cumulative = 0.00011005733
ExecutionTime = 214.62825 s  ClockTime = 217 s

Time = 1069s

smoothSolver:  Solving for Ux, Initial residual = 1.7739023e-06, Final residual = 6.5336207e-08, No Iterations 3
smoothSolver:  Solving for Uy, Initial residual = 1.2335882e-05, Final residual = 4.6266503e-07, No Iterations 3
smoothSolver:  Solving for Uz, Initial residual = 5.7817873e-07, Final residual = 2.1578424e-08, No Iterations 3
GAMG:  Solving for p, Initial residual = 1.2072175e-05, Final residual = 1.1219333e-07, No Iterations 2
time step continuity errors : sum local = 1.8316794e-08, global = -4.1304805e-10, cumulative = 0.00011005691
ExecutionTime = 214.82082 s  ClockTime = 217 s

Time = 1070s

smoothSolver:  Solving for Ux, Initial residual = 1.7573044e-06, Final residual = 6.4715248e-08, No Iterations 3
smoothSolver:  Solving for Uy, Initial residual = 1.2250798e-05, Final residual = 4.6006764e-07, No Iterations 3
smoothSolver:  Solving for Uz, Initial residual = 5.7204371e-07, Final residual = 2.135469e-08, No Iterations 3
GAMG:  Solving for p, Initial residual = 1.1965062e-05, Final residual = 1.1119781e-07, No Iterations 2
time step continuity errors : sum local = 1.815425e-08, global = -3.9397145e-10, cumulative = 0.00011005652
ExecutionTime = 215.01128 s  ClockTime = 217 s

Time = 1071s

smoothSolver:  Solving for Ux, Initial residual = 1.7408787e-06, Final residual = 6.4105107e-08, No Iterations 3
smoothSolver:  Solving for Uy, Initial residual = 1.2165611e-05, Final residual = 4.5745593e-07, No Iterations 3
smoothSolver:  Solving for Uz, Initial residual = 5.6595492e-07, Final residual = 2.1132606e-08, No Iterations 3
GAMG:  Solving for p, Initial residual = 1.1858768e-05, Final residual = 1.1019521e-07, No Iterations 2
time step continuity errors : sum local = 1.7990551e-08, global = -3.7751766e-10, cumulative = 0.00011005614
ExecutionTime = 215.20301 s  ClockTime = 217 s

Time = 1072s

smoothSolver:  Solving for Ux, Initial residual = 1.7245961e-06, Final residual = 6.3502414e-08, No Iterations 3
smoothSolver:  Solving for Uy, Initial residual = 1.2080712e-05, Final residual = 4.5482875e-07, No Iterations 3
smoothSolver:  Solving for Uz, Initial residual = 5.599166e-07, Final residual = 2.0912316e-08, No Iterations 3
GAMG:  Solving for p, Initial residual = 1.1753283e-05, Final residual = 1.0919896e-07, No Iterations 2
time step continuity errors : sum local = 1.782789e-08, global = -3.6068555e-10, cumulative = 0.00011005578
ExecutionTime = 215.39569 s  ClockTime = 218 s

Time = 1073s

smoothSolver:  Solving for Ux, Initial residual = 1.7084608e-06, Final residual = 6.2907166e-08, No Iterations 3
smoothSolver:  Solving for Uy, Initial residual = 1.1995851e-05, Final residual = 4.5215421e-07, No Iterations 3
smoothSolver:  Solving for Uz, Initial residual = 5.5391924e-07, Final residual = 2.0693701e-08, No Iterations 3
GAMG:  Solving for p, Initial residual = 1.1648087e-05, Final residual = 1.0825153e-07, No Iterations 2
time step continuity errors : sum local = 1.7673198e-08, global = -3.5475571e-10, cumulative = 0.00011005543
ExecutionTime = 215.58938 s  ClockTime = 218 s

Time = 1074s

smoothSolver:  Solving for Ux, Initial residual = 1.692477e-06, Final residual = 6.2319803e-08, No Iterations 3
smoothSolver:  Solving for Uy, Initial residual = 1.1910902e-05, Final residual = 4.4944244e-07, No Iterations 3
smoothSolver:  Solving for Uz, Initial residual = 5.4797952e-07, Final residual = 2.0476869e-08, No Iterations 3
GAMG:  Solving for p, Initial residual = 1.154351e-05, Final residual = 1.0727203e-07, No Iterations 2
time step continuity errors : sum local = 1.7513271e-08, global = -3.3362074e-10, cumulative = 0.00011005509
ExecutionTime = 215.78358 s  ClockTime = 218 s

Time = 1075s

smoothSolver:  Solving for Ux, Initial residual = 1.6766133e-06, Final residual = 6.1739244e-08, No Iterations 3
smoothSolver:  Solving for Uy, Initial residual = 1.1825728e-05, Final residual = 4.4669537e-07, No Iterations 3
smoothSolver:  Solving for Uz, Initial residual = 5.4206802e-07, Final residual = 2.0261258e-08, No Iterations 3
GAMG:  Solving for p, Initial residual = 1.1439759e-05, Final residual = 1.062827e-07, No Iterations 2
time step continuity errors : sum local = 1.735174e-08, global = -3.2805539e-10, cumulative = 0.00011005477
ExecutionTime = 215.97492 s  ClockTime = 218 s

Time = 1076s

smoothSolver:  Solving for Ux, Initial residual = 1.6608817e-06, Final residual = 6.1166153e-08, No Iterations 3
smoothSolver:  Solving for Uy, Initial residual = 1.1740635e-05, Final residual = 4.4392536e-07, No Iterations 3
smoothSolver:  Solving for Uz, Initial residual = 5.3621231e-07, Final residual = 2.0047196e-08, No Iterations 3
GAMG:  Solving for p, Initial residual = 1.133694e-05, Final residual = 1.0538391e-07, No Iterations 2
time step continuity errors : sum local = 1.7204991e-08, global = -3.0834019e-10, cumulative = 0.00011005446
ExecutionTime = 216.16695 s  ClockTime = 218 s

Time = 1077s

smoothSolver:  Solving for Ux, Initial residual = 1.6453004e-06, Final residual = 6.0600768e-08, No Iterations 3
smoothSolver:  Solving for Uy, Initial residual = 1.1655285e-05, Final residual = 4.4112661e-07, No Iterations 3
smoothSolver:  Solving for Uz, Initial residual = 5.3039486e-07, Final residual = 1.9834684e-08, No Iterations 3
GAMG:  Solving for p, Initial residual = 1.1234896e-05, Final residual = 1.0444562e-07, No Iterations 2
time step continuity errors : sum local = 1.7051793e-08, global = -3.0274504e-10, cumulative = 0.00011005416
ExecutionTime = 216.35715 s  ClockTime = 219 s

Time = 1078s

smoothSolver:  Solving for Ux, Initial residual = 1.6298669e-06, Final residual = 6.0042559e-08, No Iterations 3
smoothSolver:  Solving for Uy, Initial residual = 1.1569707e-05, Final residual = 4.3829489e-07, No Iterations 3
smoothSolver:  Solving for Uz, Initial residual = 5.2464344e-07, Final residual = 1.9623818e-08, No Iterations 3
GAMG:  Solving for p, Initial residual = 1.1133761e-05, Final residual = 1.0347923e-07, No Iterations 2
time step continuity errors : sum local = 1.6894008e-08, global = -2.8052836e-10, cumulative = 0.00011005387
ExecutionTime = 216.54797 s  ClockTime = 219 s

Time = 1079s

smoothSolver:  Solving for Ux, Initial residual = 1.6145755e-06, Final residual = 5.9493587e-08, No Iterations 3
smoothSolver:  Solving for Uy, Initial residual = 1.1484411e-05, Final residual = 4.3543504e-07, No Iterations 3
smoothSolver:  Solving for Uz, Initial residual = 5.1895368e-07, Final residual = 1.9414955e-08, No Iterations 3
GAMG:  Solving for p, Initial residual = 1.1032839e-05, Final residual = 1.0258565e-07, No Iterations 2
time step continuity errors : sum local = 1.6748111e-08, global = -2.7279811e-10, cumulative = 0.0001100536
ExecutionTime = 216.73823 s  ClockTime = 219 s

Time = 1080s

smoothSolver:  Solving for Ux, Initial residual = 1.5993982e-06, Final residual = 5.8951731e-08, No Iterations 3
smoothSolver:  Solving for Uy, Initial residual = 1.1399149e-05, Final residual = 4.325346e-07, No Iterations 3
smoothSolver:  Solving for Uz, Initial residual = 5.1333492e-07, Final residual = 1.9208443e-08, No Iterations 3
GAMG:  Solving for p, Initial residual = 1.0932379e-05, Final residual = 1.0161163e-07, No Iterations 2
time step continuity errors : sum local = 1.6589082e-08, global = -2.4896934e-10, cumulative = 0.00011005335
ExecutionTime = 216.93078 s  ClockTime = 219 s

Time = 1081s

smoothSolver:  Solving for Ux, Initial residual = 1.5843585e-06, Final residual = 5.8417355e-08, No Iterations 3
smoothSolver:  Solving for Uy, Initial residual = 1.1313843e-05, Final residual = 4.2961401e-07, No Iterations 3
smoothSolver:  Solving for Uz, Initial residual = 5.0774421e-07, Final residual = 1.9003239e-08, No Iterations 3
GAMG:  Solving for p, Initial residual = 1.0832346e-05, Final residual = 1.0071327e-07, No Iterations 2
time step continuity errors : sum local = 1.6442405e-08, global = -2.3723726e-10, cumulative = 0.00011005312
ExecutionTime = 217.12425 s  ClockTime = 219 s

Time = 1082s

smoothSolver:  Solving for Ux, Initial residual = 1.5694323e-06, Final residual = 5.7889976e-08, No Iterations 3
smoothSolver:  Solving for Uy, Initial residual = 1.1228515e-05, Final residual = 4.2666943e-07, No Iterations 3
smoothSolver:  Solving for Uz, Initial residual = 5.0221101e-07, Final residual = 1.8800227e-08, No Iterations 3
GAMG:  Solving for p, Initial residual = 1.0733167e-05, Final residual = 9.9801242e-08, No Iterations 2
time step continuity errors : sum local = 1.6293496e-08, global = -2.189571e-10, cumulative = 0.0001100529
ExecutionTime = 217.31666 s  ClockTime = 220 s

Time = 1083s

smoothSolver:  Solving for Ux, Initial residual = 1.5546141e-06, Final residual = 5.7370817e-08, No Iterations 3
smoothSolver:  Solving for Uy, Initial residual = 1.1142838e-05, Final residual = 4.2367439e-07, No Iterations 3
smoothSolver:  Solving for Uz, Initial residual = 4.967172e-07, Final residual = 1.8598783e-08, No Iterations 3
GAMG:  Solving for p, Initial residual = 1.0634331e-05, Final residual = 9.8902963e-08, No Iterations 2
time step continuity errors : sum local = 1.6146833e-08, global = -2.0057932e-10, cumulative = 0.0001100527
ExecutionTime = 217.50728 s  ClockTime = 220 s

Time = 1084s

smoothSolver:  Solving for Ux, Initial residual = 1.5398984e-06, Final residual = 5.6859802e-08, No Iterations 3
smoothSolver:  Solving for Uy, Initial residual = 1.1056836e-05, Final residual = 4.2063618e-07, No Iterations 3
smoothSolver:  Solving for Uz, Initial residual = 4.9127844e-07, Final residual = 1.839859e-08, No Iterations 3
GAMG:  Solving for p, Initial residual = 1.0535738e-05, Final residual = 9.7992135e-08, No Iterations 2
time step continuity errors : sum local = 1.5998121e-08, global = -1.8186954e-10, cumulative = 0.00011005251
ExecutionTime = 217.69978 s  ClockTime = 220 s

Time = 1085s

smoothSolver:  Solving for Ux, Initial residual = 1.5253265e-06, Final residual = 5.6354867e-08, No Iterations 3
smoothSolver:  Solving for Uy, Initial residual = 1.0970417e-05, Final residual = 4.1756687e-07, No Iterations 3
smoothSolver:  Solving for Uz, Initial residual = 4.8587929e-07, Final residual = 1.8200328e-08, No Iterations 3
GAMG:  Solving for p, Initial residual = 1.0438071e-05, Final residual = 9.7061895e-08, No Iterations 2
time step continuity errors : sum local = 1.5846241e-08, global = -1.6268002e-10, cumulative = 0.00011005235
ExecutionTime = 217.88947 s  ClockTime = 220 s

Time = 1086s

smoothSolver:  Solving for Ux, Initial residual = 1.5109015e-06, Final residual = 5.585663e-08, No Iterations 3
smoothSolver:  Solving for Uy, Initial residual = 1.0883683e-05, Final residual = 4.144614e-07, No Iterations 3
smoothSolver:  Solving for Uz, Initial residual = 4.8052194e-07, Final residual = 1.8003726e-08, No Iterations 3
GAMG:  Solving for p, Initial residual = 1.0341296e-05, Final residual = 9.610609e-08, No Iterations 2
time step continuity errors : sum local = 1.5690187e-08, global = -1.4293322e-10, cumulative = 0.00011005221
ExecutionTime = 218.08181 s  ClockTime = 220 s

Time = 1087s

smoothSolver:  Solving for Ux, Initial residual = 1.4965781e-06, Final residual = 5.5365774e-08, No Iterations 3
smoothSolver:  Solving for Uy, Initial residual = 1.0796593e-05, Final residual = 4.1129954e-07, No Iterations 3
smoothSolver:  Solving for Uz, Initial residual = 4.7520934e-07, Final residual = 1.7808491e-08, No Iterations 3
GAMG:  Solving for p, Initial residual = 1.0245358e-05, Final residual = 9.5141111e-08, No Iterations 2
time step continuity errors : sum local = 1.5532635e-08, global = -1.2259613e-10, cumulative = 0.00011005209
ExecutionTime = 218.27338 s  ClockTime = 221 s

Time = 1088s

smoothSolver:  Solving for Ux, Initial residual = 1.4823463e-06, Final residual = 5.4881323e-08, No Iterations 3
smoothSolver:  Solving for Uy, Initial residual = 1.07091e-05, Final residual = 4.0809675e-07, No Iterations 3
smoothSolver:  Solving for Uz, Initial residual = 4.6994779e-07, Final residual = 1.7615225e-08, No Iterations 3
GAMG:  Solving for p, Initial residual = 1.014995e-05, Final residual = 9.4174722e-08, No Iterations 2
time step continuity errors : sum local = 1.5374854e-08, global = -1.016542e-10, cumulative = 0.00011005198
ExecutionTime = 218.4663 s  ClockTime = 221 s

Time = 1089s

smoothSolver:  Solving for Ux, Initial residual = 1.4682295e-06, Final residual = 5.4401592e-08, No Iterations 3
smoothSolver:  Solving for Uy, Initial residual = 1.0621083e-05, Final residual = 4.0485956e-07, No Iterations 3
smoothSolver:  Solving for Uz, Initial residual = 4.6475015e-07, Final residual = 1.7424502e-08, No Iterations 3
GAMG:  Solving for p, Initial residual = 1.0054879e-05, Final residual = 9.3214095e-08, No Iterations 2
time step continuity errors : sum local = 1.5218013e-08, global = -8.0092494e-11, cumulative = 0.0001100519
ExecutionTime = 218.65919 s  ClockTime = 221 s

Time = 1090s

smoothSolver:  Solving for Ux, Initial residual = 1.4542612e-06, Final residual = 5.3927949e-08, No Iterations 3
smoothSolver:  Solving for Uy, Initial residual = 1.0532768e-05, Final residual = 4.015833e-07, No Iterations 3
smoothSolver:  Solving for Uz, Initial residual = 4.5960356e-07, Final residual = 1.7235608e-08, No Iterations 3
GAMG:  Solving for p, Initial residual = 9.9601621e-06, Final residual = 9.2258577e-08, No Iterations 2
time step continuity errors : sum local = 1.5062008e-08, global = -5.789961e-11, cumulative = 0.00011005185
ExecutionTime = 218.85143 s  ClockTime = 221 s

Time = 1091s

smoothSolver:  Solving for Ux, Initial residual = 1.4404301e-06, Final residual = 5.3460731e-08, No Iterations 3
smoothSolver:  Solving for Uy, Initial residual = 1.0444156e-05, Final residual = 3.9828308e-07, No Iterations 3
smoothSolver:  Solving for Uz, Initial residual = 4.5450507e-07, Final residual = 1.7048501e-08, No Iterations 3
GAMG:  Solving for p, Initial residual = 9.8655335e-06, Final residual = 9.1301684e-08, No Iterations 2
time step continuity errors : sum local = 1.4905777e-08, global = -3.5087855e-11, cumulative = 0.00011005181
ExecutionTime = 219.04262 s  ClockTime = 221 s

Time = 1092s

smoothSolver:  Solving for Ux, Initial residual = 1.4267183e-06, Final residual = 5.2998755e-08, No Iterations 3
smoothSolver:  Solving for Uy, Initial residual = 1.0355386e-05, Final residual = 3.9495284e-07, No Iterations 3
smoothSolver:  Solving for Uz, Initial residual = 4.4945674e-07, Final residual = 1.686281e-08, No Iterations 3
GAMG:  Solving for p, Initial residual = 9.7712156e-06, Final residual = 9.0463845e-08, No Iterations 2
time step continuity errors : sum local = 1.4768984e-08, global = -2.0876471e-11, cumulative = 0.00011005179
ExecutionTime = 219.23454 s  ClockTime = 222 s

Time = 1093s

smoothSolver:  Solving for Ux, Initial residual = 1.413115e-06, Final residual = 5.2542081e-08, No Iterations 3
smoothSolver:  Solving for Uy, Initial residual = 1.0266403e-05, Final residual = 3.9157814e-07, No Iterations 3
smoothSolver:  Solving for Uz, Initial residual = 4.4447698e-07, Final residual = 1.6679615e-08, No Iterations 3
GAMG:  Solving for p, Initial residual = 9.6778579e-06, Final residual = 8.9440961e-08, No Iterations 2
time step continuity errors : sum local = 1.4601981e-08, global = -4.8169485e-12, cumulative = 0.00011005179
ExecutionTime = 219.42529 s  ClockTime = 222 s

Time = 1094s

smoothSolver:  Solving for Ux, Initial residual = 1.399622e-06, Final residual = 5.2090441e-08, No Iterations 3
smoothSolver:  Solving for Uy, Initial residual = 1.0177034e-05, Final residual = 3.8819235e-07, No Iterations 3
smoothSolver:  Solving for Uz, Initial residual = 4.3953247e-07, Final residual = 1.6498126e-08, No Iterations 3
GAMG:  Solving for p, Initial residual = 9.5848817e-06, Final residual = 8.8422368e-08, No Iterations 2
time step continuity errors : sum local = 1.4435678e-08, global = 7.8345294e-12, cumulative = 0.00011005179
ExecutionTime = 219.61808 s  ClockTime = 222 s

Time = 1095s

smoothSolver:  Solving for Ux, Initial residual = 1.386219e-06, Final residual = 5.1642463e-08, No Iterations 3
smoothSolver:  Solving for Uy, Initial residual = 1.0087547e-05, Final residual = 3.8477298e-07, No Iterations 3
smoothSolver:  Solving for Uz, Initial residual = 4.3462489e-07, Final residual = 1.6317772e-08, No Iterations 3
GAMG:  Solving for p, Initial residual = 9.4924445e-06, Final residual = 8.7513449e-08, No Iterations 2
time step continuity errors : sum local = 1.4287281e-08, global = 1.6835542e-11, cumulative = 0.00011005181
ExecutionTime = 219.81088 s  ClockTime = 222 s

Time = 1096s

smoothSolver:  Solving for Ux, Initial residual = 1.3729011e-06, Final residual = 5.1199313e-08, No Iterations 3
smoothSolver:  Solving for Uy, Initial residual = 9.9977144e-06, Final residual = 3.8131468e-07, No Iterations 3
smoothSolver:  Solving for Uz, Initial residual = 4.2976293e-07, Final residual = 1.6138532e-08, No Iterations 3
GAMG:  Solving for p, Initial residual = 9.4005412e-06, Final residual = 8.6649322e-08, No Iterations 2
time step continuity errors : sum local = 1.4146197e-08, global = 2.2844781e-11, cumulative = 0.00011005183
ExecutionTime = 220.00239 s  ClockTime = 222 s


SIMPLE solution converged in 1096 iterations

End

Finalising parallel run
