/*---------------------------------------------------------------------------*\
  =========                 |
  \\      /  F ield         | OpenFOAM: The Open Source CFD Toolbox
   \\    /   O peration     | Website:  https://openfoam.org
    \\  /    A nd           | Version:  11
     \\/     M anipulation  |
\*---------------------------------------------------------------------------*/
Build  : 11-e1fc8c682ae6
Exec   : foamRun -solver incompressibleFluid -parallel
Date   : Feb 09 2026
Time   : 03:18:18
Host   : "ip-172-31-18-192"
PID    : 133518
I/O    : uncollated
Case   : /home/ubuntu/cases/bifurcation_angle45_1000_ascii/Re200
nProcs : 16
Slaves : 
15
(
"ip-172-31-18-192.133519"
"ip-172-31-18-192.133520"
"ip-172-31-18-192.133521"
"ip-172-31-18-192.133522"
"ip-172-31-18-192.133523"
"ip-172-31-18-192.133524"
"ip-172-31-18-192.133525"
"ip-172-31-18-192.133526"
"ip-172-31-18-192.133527"
"ip-172-31-18-192.133528"
"ip-172-31-18-192.133529"
"ip-172-31-18-192.133530"
"ip-172-31-18-192.133531"
"ip-172-31-18-192.133532"
"ip-172-31-18-192.133533"
)

Pstream initialised with:
    floatTransfer      : false
    nProcsSimpleSum    : 0
    commsType          : nonBlocking
    polling iterations : 0
sigFpe : Enabling floating point exception trapping (FOAM_SIGFPE).
fileModificationChecking : Monitoring run-time modified files using timeStampMaster (fileModificationSkew 10)
allowSystemOperations : Allowing user-supplied system call operations

// * * * * * * * * * * * * * * * * * * * * * * * * * * * * * * * * * * * * * //
Create time

Create mesh for time = 0

Selecting solver incompressibleFluid
Selecting viscosity model Newtonian
Selecting turbulence model type laminar
Selecting laminar stress model Stokes
No MRF models present


SIMPLE: Convergence criteria found
        p: tolerance 1e-05
        U: tolerance 1e-05


SIMPLE: Operating solver in steady-state mode with 1 outer corrector
SIMPLE: Operating solver in SIMPLE mode



Starting time loop

wallShearStress wallShearStress:
    processing wall patches: 
        wall-fluid_domain

Time = 1s

smoothSolver:  Solving for Ux, Initial residual = 1, Final residual = 0.044264174, No Iterations 1
smoothSolver:  Solving for Uy, Initial residual = 1, Final residual = 0.051992893, No Iterations 1
smoothSolver:  Solving for Uz, Initial residual = 1, Final residual = 0.021025463, No Iterations 1
GAMG:  Solving for p, Initial residual = 1, Final residual = 0.0099146752, No Iterations 10
time step continuity errors : sum local = 0.00013392596, global = -1.9066279e-06, cumulative = -1.9066279e-06
ExecutionTime = 0.750294 s  ClockTime = 1 s

Time = 2s

smoothSolver:  Solving for Ux, Initial residual = 0.23638981, Final residual = 0.016335085, No Iterations 2
smoothSolver:  Solving for Uy, Initial residual = 0.32093693, Final residual = 0.014509421, No Iterations 2
smoothSolver:  Solving for Uz, Initial residual = 0.2895424, Final residual = 0.023881655, No Iterations 2
GAMG:  Solving for p, Initial residual = 0.30848771, Final residual = 0.0021982517, No Iterations 6
time step continuity errors : sum local = 0.0034230629, global = -6.680634e-05, cumulative = -6.8712968e-05
ExecutionTime = 1.005304 s  ClockTime = 1 s

Time = 3s

smoothSolver:  Solving for Ux, Initial residual = 0.2387638, Final residual = 0.0077179096, No Iterations 3
smoothSolver:  Solving for Uy, Initial residual = 0.13167066, Final residual = 0.0077722572, No Iterations 2
smoothSolver:  Solving for Uz, Initial residual = 0.54899887, Final residual = 0.019353643, No Iterations 3
GAMG:  Solving for p, Initial residual = 0.15688478, Final residual = 0.0010149148, No Iterations 3
time step continuity errors : sum local = 0.0062477318, global = 0.00010109618, cumulative = 3.2383209e-05
ExecutionTime = 1.207017 s  ClockTime = 1 s

Time = 4s

smoothSolver:  Solving for Ux, Initial residual = 0.15168296, Final residual = 0.0051069909, No Iterations 3
smoothSolver:  Solving for Uy, Initial residual = 0.070101716, Final residual = 0.0041690986, No Iterations 2
smoothSolver:  Solving for Uz, Initial residual = 0.38550352, Final residual = 0.013616148, No Iterations 3
GAMG:  Solving for p, Initial residual = 0.10711749, Final residual = 0.00095217659, No Iterations 5
time step continuity errors : sum local = 0.0058276348, global = 1.1691283e-05, cumulative = 4.4074492e-05
ExecutionTime = 1.44583 s  ClockTime = 1 s

Time = 5s

smoothSolver:  Solving for Ux, Initial residual = 0.073975232, Final residual = 0.0072158579, No Iterations 2
smoothSolver:  Solving for Uy, Initial residual = 0.18889797, Final residual = 0.012571232, No Iterations 2
smoothSolver:  Solving for Uz, Initial residual = 0.14166654, Final residual = 0.0050177412, No Iterations 3
GAMG:  Solving for p, Initial residual = 0.094590548, Final residual = 0.00081663802, No Iterations 6
time step continuity errors : sum local = 0.0025063607, global = 6.5593865e-05, cumulative = 0.00010966836
ExecutionTime = 1.681075 s  ClockTime = 2 s

Time = 6s

smoothSolver:  Solving for Ux, Initial residual = 0.073182633, Final residual = 0.0062096205, No Iterations 2
smoothSolver:  Solving for Uy, Initial residual = 0.40409856, Final residual = 0.026261267, No Iterations 2
smoothSolver:  Solving for Uz, Initial residual = 0.070640369, Final residual = 0.0024376028, No Iterations 3
GAMG:  Solving for p, Initial residual = 0.43500065, Final residual = 0.0042739595, No Iterations 4
time step continuity errors : sum local = 0.0079759164, global = 0.00013131517, cumulative = 0.00024098353
ExecutionTime = 1.892521 s  ClockTime = 2 s

Time = 7s

smoothSolver:  Solving for Ux, Initial residual = 0.1217919, Final residual = 0.011828919, No Iterations 2
smoothSolver:  Solving for Uy, Initial residual = 0.24956375, Final residual = 0.015688777, No Iterations 2
smoothSolver:  Solving for Uz, Initial residual = 0.20623278, Final residual = 0.0072750576, No Iterations 3
GAMG:  Solving for p, Initial residual = 0.27344901, Final residual = 0.0011453558, No Iterations 4
time step continuity errors : sum local = 0.0037981939, global = 6.2999097e-06, cumulative = 0.00024728344
ExecutionTime = 2.104328 s  ClockTime = 2 s

Time = 8s

smoothSolver:  Solving for Ux, Initial residual = 0.10839823, Final residual = 0.0034897222, No Iterations 3
smoothSolver:  Solving for Uy, Initial residual = 0.13470844, Final residual = 0.00904559, No Iterations 2
smoothSolver:  Solving for Uz, Initial residual = 0.21678781, Final residual = 0.0076439557, No Iterations 3
GAMG:  Solving for p, Initial residual = 0.21392024, Final residual = 0.0011199717, No Iterations 5
time step continuity errors : sum local = 0.003096251, global = -1.1234824e-05, cumulative = 0.00023604861
ExecutionTime = 2.329428 s  ClockTime = 2 s

Time = 9s

smoothSolver:  Solving for Ux, Initial residual = 0.055768029, Final residual = 0.005198128, No Iterations 2
smoothSolver:  Solving for Uy, Initial residual = 0.2553273, Final residual = 0.019622288, No Iterations 2
smoothSolver:  Solving for Uz, Initial residual = 0.077030563, Final residual = 0.0026626893, No Iterations 3
GAMG:  Solving for p, Initial residual = 0.22134203, Final residual = 0.0010470015, No Iterations 6
time step continuity errors : sum local = 0.0011335481, global = -1.6428723e-05, cumulative = 0.00021961989
ExecutionTime = 2.561716 s  ClockTime = 3 s

Time = 10s

smoothSolver:  Solving for Ux, Initial residual = 0.061733761, Final residual = 0.0056294925, No Iterations 2
smoothSolver:  Solving for Uy, Initial residual = 0.39453167, Final residual = 0.027894739, No Iterations 2
smoothSolver:  Solving for Uz, Initial residual = 0.073186451, Final residual = 0.0025844672, No Iterations 3
GAMG:  Solving for p, Initial residual = 0.31573775, Final residual = 0.0028135607, No Iterations 4
time step continuity errors : sum local = 0.0031469932, global = -2.8760499e-05, cumulative = 0.00019085939
ExecutionTime = 2.773047 s  ClockTime = 3 s

Time = 11s

smoothSolver:  Solving for Ux, Initial residual = 0.066302599, Final residual = 0.0065361708, No Iterations 2
smoothSolver:  Solving for Uy, Initial residual = 0.23073579, Final residual = 0.015178627, No Iterations 2
smoothSolver:  Solving for Uz, Initial residual = 0.113455, Final residual = 0.0040191447, No Iterations 3
GAMG:  Solving for p, Initial residual = 0.23075602, Final residual = 0.0015464141, No Iterations 4
time step continuity errors : sum local = 0.0025108261, global = 8.084019e-06, cumulative = 0.00019894341
ExecutionTime = 2.991534 s  ClockTime = 3 s

Time = 12s

smoothSolver:  Solving for Ux, Initial residual = 0.042872079, Final residual = 0.0014030821, No Iterations 3
smoothSolver:  Solving for Uy, Initial residual = 0.15065318, Final residual = 0.011742265, No Iterations 2
smoothSolver:  Solving for Uz, Initial residual = 0.076660839, Final residual = 0.0027170609, No Iterations 3
GAMG:  Solving for p, Initial residual = 0.17995561, Final residual = 0.001276973, No Iterations 5
time step continuity errors : sum local = 0.001554879, global = -3.0934093e-07, cumulative = 0.00019863407
ExecutionTime = 3.23197 s  ClockTime = 3 s

Time = 13s

smoothSolver:  Solving for Ux, Initial residual = 0.020949374, Final residual = 0.0018607437, No Iterations 2
smoothSolver:  Solving for Uy, Initial residual = 0.31111295, Final residual = 0.025465639, No Iterations 2
smoothSolver:  Solving for Uz, Initial residual = 0.017164527, Final residual = 0.00054327482, No Iterations 3
GAMG:  Solving for p, Initial residual = 0.2858864, Final residual = 0.0011780931, No Iterations 6
time step continuity errors : sum local = 0.00048389093, global = 7.9793244e-06, cumulative = 0.00020661339
ExecutionTime = 3.467486 s  ClockTime = 3 s

Time = 14s

smoothSolver:  Solving for Ux, Initial residual = 0.028861629, Final residual = 0.0027096793, No Iterations 2
smoothSolver:  Solving for Uy, Initial residual = 0.33306072, Final residual = 0.025051484, No Iterations 2
smoothSolver:  Solving for Uz, Initial residual = 0.036970008, Final residual = 0.0012954358, No Iterations 3
GAMG:  Solving for p, Initial residual = 0.30780953, Final residual = 0.0020827748, No Iterations 4
time step continuity errors : sum local = 0.0012722561, global = 8.5439537e-06, cumulative = 0.00021515735
ExecutionTime = 3.679243 s  ClockTime = 4 s

Time = 15s

smoothSolver:  Solving for Ux, Initial residual = 0.030836118, Final residual = 0.0030545131, No Iterations 2
smoothSolver:  Solving for Uy, Initial residual = 0.18242529, Final residual = 0.012696654, No Iterations 2
smoothSolver:  Solving for Uz, Initial residual = 0.051600832, Final residual = 0.001812395, No Iterations 3
GAMG:  Solving for p, Initial residual = 0.2339955, Final residual = 0.0019056152, No Iterations 4
time step continuity errors : sum local = 0.0014123214, global = -9.8968427e-06, cumulative = 0.00020526051
ExecutionTime = 3.891487 s  ClockTime = 4 s

Time = 16s

smoothSolver:  Solving for Ux, Initial residual = 0.020520684, Final residual = 0.0006609639, No Iterations 3
smoothSolver:  Solving for Uy, Initial residual = 0.1480307, Final residual = 0.012511058, No Iterations 2
smoothSolver:  Solving for Uz, Initial residual = 0.03282031, Final residual = 0.0011461457, No Iterations 3
GAMG:  Solving for p, Initial residual = 0.18638893, Final residual = 0.0015451668, No Iterations 5
time step continuity errors : sum local = 0.00075018519, global = 4.7366348e-07, cumulative = 0.00020573417
ExecutionTime = 4.115382 s  ClockTime = 4 s

Time = 17s

smoothSolver:  Solving for Ux, Initial residual = 0.011486159, Final residual = 0.0009819609, No Iterations 2
smoothSolver:  Solving for Uy, Initial residual = 0.27370349, Final residual = 0.022797548, No Iterations 2
smoothSolver:  Solving for Uz, Initial residual = 0.0074223304, Final residual = 0.00067485449, No Iterations 2
GAMG:  Solving for p, Initial residual = 0.42139128, Final residual = 0.0034394281, No Iterations 5
time step continuity errors : sum local = 0.00051472366, global = -6.8786204e-07, cumulative = 0.00020504631
ExecutionTime = 4.337359 s  ClockTime = 4 s

Time = 18s

smoothSolver:  Solving for Ux, Initial residual = 0.016023335, Final residual = 0.0015607681, No Iterations 2
smoothSolver:  Solving for Uy, Initial residual = 0.23930189, Final residual = 0.018427878, No Iterations 2
smoothSolver:  Solving for Uz, Initial residual = 0.022304783, Final residual = 0.00079838874, No Iterations 3
GAMG:  Solving for p, Initial residual = 0.23499874, Final residual = 0.0012552011, No Iterations 4
time step continuity errors : sum local = 0.0004908178, global = -5.2822601e-06, cumulative = 0.00019976405
ExecutionTime = 4.551599 s  ClockTime = 5 s

Time = 19s

smoothSolver:  Solving for Ux, Initial residual = 0.014321861, Final residual = 0.00046211362, No Iterations 3
smoothSolver:  Solving for Uy, Initial residual = 0.13326933, Final residual = 0.0099616354, No Iterations 2
smoothSolver:  Solving for Uz, Initial residual = 0.023813768, Final residual = 0.00085148672, No Iterations 3
GAMG:  Solving for p, Initial residual = 0.18437696, Final residual = 0.0007602739, No Iterations 5
time step continuity errors : sum local = 0.00031135222, global = 1.3199296e-07, cumulative = 0.00019989604
ExecutionTime = 4.780616 s  ClockTime = 5 s

Time = 20s

smoothSolver:  Solving for Ux, Initial residual = 0.008872458, Final residual = 0.00029289471, No Iterations 3
smoothSolver:  Solving for Uy, Initial residual = 0.13304688, Final residual = 0.011876964, No Iterations 2
smoothSolver:  Solving for Uz, Initial residual = 0.01216762, Final residual = 0.00043445618, No Iterations 3
GAMG:  Solving for p, Initial residual = 0.13330562, Final residual = 0.0012888479, No Iterations 5
time step continuity errors : sum local = 0.00034527612, global = -6.8774784e-07, cumulative = 0.00019920829
ExecutionTime = 5.004258 s  ClockTime = 5 s

Time = 21s

smoothSolver:  Solving for Ux, Initial residual = 0.0061488589, Final residual = 0.00054631382, No Iterations 2
smoothSolver:  Solving for Uy, Initial residual = 0.18801939, Final residual = 0.015996829, No Iterations 2
smoothSolver:  Solving for Uz, Initial residual = 0.0045405973, Final residual = 0.00042956388, No Iterations 2
GAMG:  Solving for p, Initial residual = 0.33863877, Final residual = 0.0020305466, No Iterations 5
time step continuity errors : sum local = 0.00020711382, global = 4.1316791e-07, cumulative = 0.00019962146
ExecutionTime = 5.229852 s  ClockTime = 5 s

Time = 22s

smoothSolver:  Solving for Ux, Initial residual = 0.0073833795, Final residual = 0.00070626729, No Iterations 2
smoothSolver:  Solving for Uy, Initial residual = 0.14631171, Final residual = 0.011595776, No Iterations 2
smoothSolver:  Solving for Uz, Initial residual = 0.010625959, Final residual = 0.00036592495, No Iterations 3
GAMG:  Solving for p, Initial residual = 0.22990243, Final residual = 0.0014090152, No Iterations 4
time step continuity errors : sum local = 0.00027319567, global = -1.9114182e-06, cumulative = 0.00019771004
ExecutionTime = 5.442883 s  ClockTime = 5 s

Time = 23s

smoothSolver:  Solving for Ux, Initial residual = 0.006102993, Final residual = 0.00060656792, No Iterations 2
smoothSolver:  Solving for Uy, Initial residual = 0.082516791, Final residual = 0.0065721448, No Iterations 2
smoothSolver:  Solving for Uz, Initial residual = 0.010077581, Final residual = 0.00034651551, No Iterations 3
GAMG:  Solving for p, Initial residual = 0.18042057, Final residual = 0.00088530648, No Iterations 5
time step continuity errors : sum local = 0.00016269077, global = 1.4909993e-07, cumulative = 0.00019785914
ExecutionTime = 5.667205 s  ClockTime = 6 s

Time = 24s

smoothSolver:  Solving for Ux, Initial residual = 0.0038560012, Final residual = 0.00037273295, No Iterations 2
smoothSolver:  Solving for Uy, Initial residual = 0.093088281, Final residual = 0.0084763887, No Iterations 2
smoothSolver:  Solving for Uz, Initial residual = 0.0042052177, Final residual = 0.00013518392, No Iterations 3
GAMG:  Solving for p, Initial residual = 0.1463825, Final residual = 0.0014552938, No Iterations 5
time step continuity errors : sum local = 0.00015562421, global = 2.0568344e-07, cumulative = 0.00019806483
ExecutionTime = 5.890464 s  ClockTime = 6 s

Time = 25s

smoothSolver:  Solving for Ux, Initial residual = 0.0040222724, Final residual = 0.0003916124, No Iterations 2
smoothSolver:  Solving for Uy, Initial residual = 0.10880682, Final residual = 0.0094454263, No Iterations 2
smoothSolver:  Solving for Uz, Initial residual = 0.0043797777, Final residual = 0.00015173418, No Iterations 3
GAMG:  Solving for p, Initial residual = 0.13464728, Final residual = 0.00059304554, No Iterations 5
time step continuity errors : sum local = 8.1344207e-05, global = -4.5773326e-07, cumulative = 0.00019760709
ExecutionTime = 6.111347 s  ClockTime = 6 s

Time = 26s

smoothSolver:  Solving for Ux, Initial residual = 0.0042625393, Final residual = 0.00013677859, No Iterations 3
smoothSolver:  Solving for Uy, Initial residual = 0.079181195, Final residual = 0.0066490502, No Iterations 2
smoothSolver:  Solving for Uz, Initial residual = 0.0062587099, Final residual = 0.00022515229, No Iterations 3
GAMG:  Solving for p, Initial residual = 0.12032207, Final residual = 0.00090314439, No Iterations 4
time step continuity errors : sum local = 0.00015623836, global = 3.4257453e-07, cumulative = 0.00019794967
ExecutionTime = 6.330701 s  ClockTime = 6 s

Time = 27s

smoothSolver:  Solving for Ux, Initial residual = 0.003466064, Final residual = 0.00011646567, No Iterations 3
smoothSolver:  Solving for Uy, Initial residual = 0.050841245, Final residual = 0.0046387688, No Iterations 2
smoothSolver:  Solving for Uz, Initial residual = 0.0053113639, Final residual = 0.0001896315, No Iterations 3
GAMG:  Solving for p, Initial residual = 0.085680876, Final residual = 0.00051213662, No Iterations 5
time step continuity errors : sum local = 8.2917379e-05, global = -2.113266e-07, cumulative = 0.00019773834
ExecutionTime = 6.560436 s  ClockTime = 7 s

Time = 28s

smoothSolver:  Solving for Ux, Initial residual = 0.0028402277, Final residual = 9.1704659e-05, No Iterations 3
smoothSolver:  Solving for Uy, Initial residual = 0.05865014, Final residual = 0.0055188274, No Iterations 2
smoothSolver:  Solving for Uz, Initial residual = 0.0033214892, Final residual = 0.00011285919, No Iterations 3
GAMG:  Solving for p, Initial residual = 0.062169209, Final residual = 0.00055783985, No Iterations 5
time step continuity errors : sum local = 6.9275485e-05, global = -1.2142635e-07, cumulative = 0.00019761691
ExecutionTime = 6.786623 s  ClockTime = 7 s

Time = 29s

smoothSolver:  Solving for Ux, Initial residual = 0.002446496, Final residual = 0.00023833165, No Iterations 2
smoothSolver:  Solving for Uy, Initial residual = 0.06019657, Final residual = 0.0054212374, No Iterations 2
smoothSolver:  Solving for Uz, Initial residual = 0.0025677824, Final residual = 8.1462008e-05, No Iterations 3
GAMG:  Solving for p, Initial residual = 0.11404584, Final residual = 0.00094104577, No Iterations 4
time step continuity errors : sum local = 8.5994039e-05, global = 5.0504148e-07, cumulative = 0.00019812195
ExecutionTime = 6.99726 s  ClockTime = 7 s

Time = 30s

smoothSolver:  Solving for Ux, Initial residual = 0.0021153531, Final residual = 0.00020626314, No Iterations 2
smoothSolver:  Solving for Uy, Initial residual = 0.043565825, Final residual = 0.003932333, No Iterations 2
smoothSolver:  Solving for Uz, Initial residual = 0.0027511757, Final residual = 8.9009296e-05, No Iterations 3
GAMG:  Solving for p, Initial residual = 0.11287743, Final residual = 0.00085775468, No Iterations 4
time step continuity errors : sum local = 7.8736523e-05, global = -2.8245527e-07, cumulative = 0.0001978395
ExecutionTime = 7.208795 s  ClockTime = 7 s

Time = 31s

smoothSolver:  Solving for Ux, Initial residual = 0.0019092722, Final residual = 6.0231801e-05, No Iterations 3
smoothSolver:  Solving for Uy, Initial residual = 0.033799113, Final residual = 0.003307321, No Iterations 2
smoothSolver:  Solving for Uz, Initial residual = 0.0023906607, Final residual = 7.7511604e-05, No Iterations 3
GAMG:  Solving for p, Initial residual = 0.076625597, Final residual = 0.00044515227, No Iterations 5
time step continuity errors : sum local = 3.9124903e-05, global = 5.7037268e-08, cumulative = 0.00019789654
ExecutionTime = 7.430709 s  ClockTime = 7 s

Time = 32s

smoothSolver:  Solving for Ux, Initial residual = 0.0020418, Final residual = 6.6001191e-05, No Iterations 3
smoothSolver:  Solving for Uy, Initial residual = 0.037829105, Final residual = 0.0036916532, No Iterations 2
smoothSolver:  Solving for Uz, Initial residual = 0.0025424518, Final residual = 8.5536824e-05, No Iterations 3
GAMG:  Solving for p, Initial residual = 0.044240456, Final residual = 0.00027372061, No Iterations 5
time step continuity errors : sum local = 2.8876044e-05, global = -1.6470276e-08, cumulative = 0.00019788007
ExecutionTime = 7.65666 s  ClockTime = 8 s

Time = 33s

smoothSolver:  Solving for Ux, Initial residual = 0.0021207452, Final residual = 6.9700224e-05, No Iterations 3
smoothSolver:  Solving for Uy, Initial residual = 0.036119582, Final residual = 0.003475571, No Iterations 2
smoothSolver:  Solving for Uz, Initial residual = 0.0029111014, Final residual = 0.00010056925, No Iterations 3
GAMG:  Solving for p, Initial residual = 0.046676003, Final residual = 0.00030243632, No Iterations 4
time step continuity errors : sum local = 3.6266268e-05, global = -2.6652404e-07, cumulative = 0.00019761354
ExecutionTime = 7.869148 s  ClockTime = 8 s

Time = 34s

smoothSolver:  Solving for Ux, Initial residual = 0.0020048891, Final residual = 6.7269311e-05, No Iterations 3
smoothSolver:  Solving for Uy, Initial residual = 0.028883339, Final residual = 0.0028837853, No Iterations 2
smoothSolver:  Solving for Uz, Initial residual = 0.0029516935, Final residual = 0.00010250986, No Iterations 3
GAMG:  Solving for p, Initial residual = 0.041004245, Final residual = 0.00034583789, No Iterations 4
time step continuity errors : sum local = 4.2708289e-05, global = 3.2270551e-07, cumulative = 0.00019793625
ExecutionTime = 8.081783 s  ClockTime = 8 s

Time = 35s

smoothSolver:  Solving for Ux, Initial residual = 0.0018646097, Final residual = 6.2921406e-05, No Iterations 3
smoothSolver:  Solving for Uy, Initial residual = 0.026162719, Final residual = 0.00085583805, No Iterations 3
smoothSolver:  Solving for Uz, Initial residual = 0.0026977202, Final residual = 9.2779821e-05, No Iterations 3
GAMG:  Solving for p, Initial residual = 0.030229435, Final residual = 0.00016416873, No Iterations 5
time step continuity errors : sum local = 1.9423817e-05, global = -5.3096647e-08, cumulative = 0.00019788315
ExecutionTime = 8.30869 s  ClockTime = 8 s

Time = 36s

smoothSolver:  Solving for Ux, Initial residual = 0.0017583083, Final residual = 5.8385719e-05, No Iterations 3
smoothSolver:  Solving for Uy, Initial residual = 0.026665553, Final residual = 0.00085602641, No Iterations 3
smoothSolver:  Solving for Uz, Initial residual = 0.0023915718, Final residual = 8.1030894e-05, No Iterations 3
GAMG:  Solving for p, Initial residual = 0.030783452, Final residual = 0.00029920087, No Iterations 4
time step continuity errors : sum local = 3.2915332e-05, global = 3.2905645e-07, cumulative = 0.00019821221
ExecutionTime = 8.523922 s  ClockTime = 9 s

Time = 37s

smoothSolver:  Solving for Ux, Initial residual = 0.0016561632, Final residual = 5.4578042e-05, No Iterations 3
smoothSolver:  Solving for Uy, Initial residual = 0.024670689, Final residual = 0.00079164662, No Iterations 3
smoothSolver:  Solving for Uz, Initial residual = 0.0022251318, Final residual = 7.4755067e-05, No Iterations 3
GAMG:  Solving for p, Initial residual = 0.035916677, Final residual = 0.00020098261, No Iterations 4
time step continuity errors : sum local = 2.1055276e-05, global = 2.0517851e-07, cumulative = 0.00019841739
ExecutionTime = 8.739082 s  ClockTime = 9 s

Time = 38s

smoothSolver:  Solving for Ux, Initial residual = 0.0015869178, Final residual = 5.2719487e-05, No Iterations 3
smoothSolver:  Solving for Uy, Initial residual = 0.021879631, Final residual = 0.00072426557, No Iterations 3
smoothSolver:  Solving for Uz, Initial residual = 0.0021805487, Final residual = 7.3383539e-05, No Iterations 3
GAMG:  Solving for p, Initial residual = 0.032315911, Final residual = 0.00021006272, No Iterations 4
time step continuity errors : sum local = 2.1961129e-05, global = -9.6481088e-08, cumulative = 0.00019832091
ExecutionTime = 8.954604 s  ClockTime = 9 s

Time = 39s

smoothSolver:  Solving for Ux, Initial residual = 0.0015753698, Final residual = 5.2817813e-05, No Iterations 3
smoothSolver:  Solving for Uy, Initial residual = 0.021201496, Final residual = 0.0007107789, No Iterations 3
smoothSolver:  Solving for Uz, Initial residual = 0.002203456, Final residual = 7.4733229e-05, No Iterations 3
GAMG:  Solving for p, Initial residual = 0.025596124, Final residual = 0.00020213982, No Iterations 4
time step continuity errors : sum local = 2.1794509e-05, global = -1.5160491e-07, cumulative = 0.0001981693
ExecutionTime = 9.170516 s  ClockTime = 9 s

Time = 40s

smoothSolver:  Solving for Ux, Initial residual = 0.0015778576, Final residual = 5.320413e-05, No Iterations 3
smoothSolver:  Solving for Uy, Initial residual = 0.021125101, Final residual = 0.00070520911, No Iterations 3
smoothSolver:  Solving for Uz, Initial residual = 0.0022524444, Final residual = 7.7069183e-05, No Iterations 3
GAMG:  Solving for p, Initial residual = 0.023310126, Final residual = 0.00014296499, No Iterations 4
time step continuity errors : sum local = 1.6005412e-05, global = -7.3428249e-08, cumulative = 0.00019809587
ExecutionTime = 9.387956 s  ClockTime = 9 s

Time = 41s

smoothSolver:  Solving for Ux, Initial residual = 0.0015541911, Final residual = 5.2697213e-05, No Iterations 3
smoothSolver:  Solving for Uy, Initial residual = 0.020200587, Final residual = 0.00067856679, No Iterations 3
smoothSolver:  Solving for Uz, Initial residual = 0.0022680144, Final residual = 7.7986974e-05, No Iterations 3
GAMG:  Solving for p, Initial residual = 0.022800768, Final residual = 0.00012597466, No Iterations 4
time step continuity errors : sum local = 1.4423797e-05, global = 1.290719e-07, cumulative = 0.00019822494
ExecutionTime = 9.603858 s  ClockTime = 10 s

Time = 42s

smoothSolver:  Solving for Ux, Initial residual = 0.0015138842, Final residual = 5.1497587e-05, No Iterations 3
smoothSolver:  Solving for Uy, Initial residual = 0.019170531, Final residual = 0.00065181932, No Iterations 3
smoothSolver:  Solving for Uz, Initial residual = 0.002226437, Final residual = 7.6588748e-05, No Iterations 3
GAMG:  Solving for p, Initial residual = 0.021278621, Final residual = 0.00013837168, No Iterations 4
time step continuity errors : sum local = 1.588752e-05, global = 9.3334657e-08, cumulative = 0.00019831828
ExecutionTime = 9.819835 s  ClockTime = 10 s

Time = 43s

smoothSolver:  Solving for Ux, Initial residual = 0.0014732745, Final residual = 5.0035732e-05, No Iterations 3
smoothSolver:  Solving for Uy, Initial residual = 0.018620627, Final residual = 0.00063494839, No Iterations 3
smoothSolver:  Solving for Uz, Initial residual = 0.0021463978, Final residual = 7.3631091e-05, No Iterations 3
GAMG:  Solving for p, Initial residual = 0.020326544, Final residual = 0.00013403371, No Iterations 4
time step continuity errors : sum local = 1.5215087e-05, global = 1.0538291e-07, cumulative = 0.00019842366
ExecutionTime = 10.034497 s  ClockTime = 10 s

Time = 44s

smoothSolver:  Solving for Ux, Initial residual = 0.0014368874, Final residual = 4.8665173e-05, No Iterations 3
smoothSolver:  Solving for Uy, Initial residual = 0.018142583, Final residual = 0.00061758261, No Iterations 3
smoothSolver:  Solving for Uz, Initial residual = 0.0020699808, Final residual = 7.0804863e-05, No Iterations 3
GAMG:  Solving for p, Initial residual = 0.020752401, Final residual = 0.00012002685, No Iterations 4
time step continuity errors : sum local = 1.344975e-05, global = 7.0979968e-08, cumulative = 0.00019849464
ExecutionTime = 10.250012 s  ClockTime = 10 s

Time = 45s

smoothSolver:  Solving for Ux, Initial residual = 0.001406179, Final residual = 4.7621437e-05, No Iterations 3
smoothSolver:  Solving for Uy, Initial residual = 0.017517338, Final residual = 0.00059777461, No Iterations 3
smoothSolver:  Solving for Uz, Initial residual = 0.0020197493, Final residual = 6.9033748e-05, No Iterations 3
GAMG:  Solving for p, Initial residual = 0.020714344, Final residual = 0.0001357776, No Iterations 3
time step continuity errors : sum local = 1.513916e-05, global = 1.4096141e-07, cumulative = 0.0001986356
ExecutionTime = 10.45309 s  ClockTime = 10 s

Time = 46s

smoothSolver:  Solving for Ux, Initial residual = 0.0013841539, Final residual = 4.6973332e-05, No Iterations 3
smoothSolver:  Solving for Uy, Initial residual = 0.017001924, Final residual = 0.00058215568, No Iterations 3
smoothSolver:  Solving for Uz, Initial residual = 0.0019919381, Final residual = 6.8178885e-05, No Iterations 3
GAMG:  Solving for p, Initial residual = 0.019720047, Final residual = 9.6269587e-05, No Iterations 4
time step continuity errors : sum local = 1.0781249e-05, global = -4.6350319e-08, cumulative = 0.00019858925
ExecutionTime = 10.670846 s  ClockTime = 11 s

Time = 47s

smoothSolver:  Solving for Ux, Initial residual = 0.0013672045, Final residual = 4.6491509e-05, No Iterations 3
smoothSolver:  Solving for Uy, Initial residual = 0.016658387, Final residual = 0.00057072723, No Iterations 3
smoothSolver:  Solving for Uz, Initial residual = 0.001977116, Final residual = 6.7837e-05, No Iterations 3
GAMG:  Solving for p, Initial residual = 0.018725008, Final residual = 9.2544153e-05, No Iterations 4
time step continuity errors : sum local = 1.04629e-05, global = -4.7212002e-08, cumulative = 0.00019854204
ExecutionTime = 10.887987 s  ClockTime = 11 s

Time = 48s

smoothSolver:  Solving for Ux, Initial residual = 0.0013499786, Final residual = 4.5979713e-05, No Iterations 3
smoothSolver:  Solving for Uy, Initial residual = 0.016311276, Final residual = 0.00055898052, No Iterations 3
smoothSolver:  Solving for Uz, Initial residual = 0.0019630183, Final residual = 6.7507172e-05, No Iterations 3
GAMG:  Solving for p, Initial residual = 0.018124905, Final residual = 0.00013377134, No Iterations 3
time step continuity errors : sum local = 1.5268633e-05, global = -1.1104074e-08, cumulative = 0.00019853094
ExecutionTime = 11.093708 s  ClockTime = 11 s

Time = 49s

smoothSolver:  Solving for Ux, Initial residual = 0.001330101, Final residual = 4.5355302e-05, No Iterations 3
smoothSolver:  Solving for Uy, Initial residual = 0.015905426, Final residual = 0.0005459541, No Iterations 3
smoothSolver:  Solving for Uz, Initial residual = 0.0019392869, Final residual = 6.676674e-05, No Iterations 3
GAMG:  Solving for p, Initial residual = 0.017669833, Final residual = 0.00016142006, No Iterations 3
time step continuity errors : sum local = 1.8524036e-05, global = 2.9935485e-07, cumulative = 0.00019883029
ExecutionTime = 11.297427 s  ClockTime = 11 s

Time = 50s

smoothSolver:  Solving for Ux, Initial residual = 0.0013106358, Final residual = 4.4719826e-05, No Iterations 3
smoothSolver:  Solving for Uy, Initial residual = 0.015529567, Final residual = 0.00053368293, No Iterations 3
smoothSolver:  Solving for Uz, Initial residual = 0.0019109834, Final residual = 6.5831217e-05, No Iterations 3
GAMG:  Solving for p, Initial residual = 0.017271423, Final residual = 0.00011172148, No Iterations 4
time step continuity errors : sum local = 1.2860889e-05, global = 1.0514717e-07, cumulative = 0.00019893544
ExecutionTime = 11.513863 s  ClockTime = 12 s

Time = 51s

smoothSolver:  Solving for Ux, Initial residual = 0.0012908172, Final residual = 4.4019963e-05, No Iterations 3
smoothSolver:  Solving for Uy, Initial residual = 0.015206593, Final residual = 0.00052273097, No Iterations 3
smoothSolver:  Solving for Uz, Initial residual = 0.0018753071, Final residual = 6.4569502e-05, No Iterations 3
GAMG:  Solving for p, Initial residual = 0.017078999, Final residual = 0.00010913554, No Iterations 4
time step continuity errors : sum local = 1.2551284e-05, global = 9.6057292e-08, cumulative = 0.0001990315
ExecutionTime = 11.730538 s  ClockTime = 12 s

Time = 52s

smoothSolver:  Solving for Ux, Initial residual = 0.0012727495, Final residual = 4.338452e-05, No Iterations 3
smoothSolver:  Solving for Uy, Initial residual = 0.014901808, Final residual = 0.00051206873, No Iterations 3
smoothSolver:  Solving for Uz, Initial residual = 0.0018407515, Final residual = 6.3354194e-05, No Iterations 3
GAMG:  Solving for p, Initial residual = 0.01696805, Final residual = 0.0001003367, No Iterations 4
time step continuity errors : sum local = 1.152617e-05, global = 9.8550866e-08, cumulative = 0.00019913005
ExecutionTime = 11.946962 s  ClockTime = 12 s

Time = 53s

smoothSolver:  Solving for Ux, Initial residual = 0.001256922, Final residual = 4.284934e-05, No Iterations 3
smoothSolver:  Solving for Uy, Initial residual = 0.014600126, Final residual = 0.00050169683, No Iterations 3
smoothSolver:  Solving for Uz, Initial residual = 0.0018115821, Final residual = 6.2362074e-05, No Iterations 3
GAMG:  Solving for p, Initial residual = 0.016737953, Final residual = 0.00010310583, No Iterations 3
time step continuity errors : sum local = 1.1853903e-05, global = 2.134804e-07, cumulative = 0.00019934353
ExecutionTime = 12.150482 s  ClockTime = 12 s

Time = 54s

smoothSolver:  Solving for Ux, Initial residual = 0.0012430841, Final residual = 4.2408929e-05, No Iterations 3
smoothSolver:  Solving for Uy, Initial residual = 0.014303692, Final residual = 0.0004916607, No Iterations 3
smoothSolver:  Solving for Uz, Initial residual = 0.0017882782, Final residual = 6.1619728e-05, No Iterations 3
GAMG:  Solving for p, Initial residual = 0.01634907, Final residual = 9.6295312e-05, No Iterations 3
time step continuity errors : sum local = 1.1109307e-05, global = 1.495693e-07, cumulative = 0.0001994931
ExecutionTime = 12.354572 s  ClockTime = 12 s

Time = 55s

smoothSolver:  Solving for Ux, Initial residual = 0.0012304831, Final residual = 4.2005397e-05, No Iterations 3
smoothSolver:  Solving for Uy, Initial residual = 0.014026645, Final residual = 0.00048221136, No Iterations 3
smoothSolver:  Solving for Uz, Initial residual = 0.0017663879, Final residual = 6.0925999e-05, No Iterations 3
GAMG:  Solving for p, Initial residual = 0.016015076, Final residual = 0.00010773808, No Iterations 3
time step continuity errors : sum local = 1.2476637e-05, global = 1.8659244e-07, cumulative = 0.00019967969
ExecutionTime = 12.556724 s  ClockTime = 13 s

Time = 56s

smoothSolver:  Solving for Ux, Initial residual = 0.001218659, Final residual = 4.1622919e-05, No Iterations 3
smoothSolver:  Solving for Uy, Initial residual = 0.013756706, Final residual = 0.00047308271, No Iterations 3
smoothSolver:  Solving for Uz, Initial residual = 0.0017451243, Final residual = 6.0246843e-05, No Iterations 3
GAMG:  Solving for p, Initial residual = 0.015748742, Final residual = 0.00012571547, No Iterations 3
time step continuity errors : sum local = 1.4612731e-05, global = 2.7463733e-07, cumulative = 0.00019995433
ExecutionTime = 12.76131 s  ClockTime = 13 s

Time = 57s

smoothSolver:  Solving for Ux, Initial residual = 0.0012073087, Final residual = 4.1250226e-05, No Iterations 3
smoothSolver:  Solving for Uy, Initial residual = 0.013494774, Final residual = 0.00046425067, No Iterations 3
smoothSolver:  Solving for Uz, Initial residual = 0.0017238814, Final residual = 5.956088e-05, No Iterations 3
GAMG:  Solving for p, Initial residual = 0.015517333, Final residual = 9.5361515e-05, No Iterations 4
time step continuity errors : sum local = 1.1120802e-05, global = 1.3092032e-07, cumulative = 0.00020008525
ExecutionTime = 12.976804 s  ClockTime = 13 s

Time = 58s

smoothSolver:  Solving for Ux, Initial residual = 0.0011958244, Final residual = 4.0853665e-05, No Iterations 3
smoothSolver:  Solving for Uy, Initial residual = 0.013246713, Final residual = 0.00045585766, No Iterations 3
smoothSolver:  Solving for Uz, Initial residual = 0.0017018165, Final residual = 5.8824217e-05, No Iterations 3
GAMG:  Solving for p, Initial residual = 0.015350162, Final residual = 9.5530612e-05, No Iterations 4
time step continuity errors : sum local = 1.1162735e-05, global = 1.1383949e-07, cumulative = 0.00020019909
ExecutionTime = 13.196061 s  ClockTime = 13 s

Time = 59s

smoothSolver:  Solving for Ux, Initial residual = 0.0011846545, Final residual = 4.046982e-05, No Iterations 3
smoothSolver:  Solving for Uy, Initial residual = 0.012999541, Final residual = 0.00044750177, No Iterations 3
smoothSolver:  Solving for Uz, Initial residual = 0.0016791564, Final residual = 5.8060792e-05, No Iterations 3
GAMG:  Solving for p, Initial residual = 0.015187962, Final residual = 0.00015132503, No Iterations 3
time step continuity errors : sum local = 1.7709419e-05, global = 2.1776459e-07, cumulative = 0.00020041685
ExecutionTime = 13.397882 s  ClockTime = 13 s

Time = 60s

smoothSolver:  Solving for Ux, Initial residual = 0.0011742915, Final residual = 4.0126634e-05, No Iterations 3
smoothSolver:  Solving for Uy, Initial residual = 0.012749903, Final residual = 0.00043908498, No Iterations 3
smoothSolver:  Solving for Uz, Initial residual = 0.0016576488, Final residual = 5.7349422e-05, No Iterations 3
GAMG:  Solving for p, Initial residual = 0.014971225, Final residual = 8.7618371e-05, No Iterations 4
time step continuity errors : sum local = 1.0277078e-05, global = 7.1751589e-08, cumulative = 0.0002004886
ExecutionTime = 13.614888 s  ClockTime = 14 s

Time = 61s

smoothSolver:  Solving for Ux, Initial residual = 0.0011651549, Final residual = 3.981747e-05, No Iterations 3
smoothSolver:  Solving for Uy, Initial residual = 0.012520162, Final residual = 0.00043124714, No Iterations 3
smoothSolver:  Solving for Uz, Initial residual = 0.0016353691, Final residual = 5.6596008e-05, No Iterations 3
GAMG:  Solving for p, Initial residual = 0.014793253, Final residual = 0.00011946922, No Iterations 3
time step continuity errors : sum local = 1.4034716e-05, global = 1.8018617e-07, cumulative = 0.00020066879
ExecutionTime = 13.817712 s  ClockTime = 14 s

Time = 62s

smoothSolver:  Solving for Ux, Initial residual = 0.0011566414, Final residual = 3.9542136e-05, No Iterations 3
smoothSolver:  Solving for Uy, Initial residual = 0.012295337, Final residual = 0.00042361955, No Iterations 3
smoothSolver:  Solving for Uz, Initial residual = 0.0016155287, Final residual = 5.5946192e-05, No Iterations 3
GAMG:  Solving for p, Initial residual = 0.014567085, Final residual = 0.00012080486, No Iterations 3
time step continuity errors : sum local = 1.4229073e-05, global = 1.9533027e-07, cumulative = 0.00020086412
ExecutionTime = 14.020009 s  ClockTime = 14 s

Time = 63s

smoothSolver:  Solving for Ux, Initial residual = 0.0011490817, Final residual = 3.9298038e-05, No Iterations 3
smoothSolver:  Solving for Uy, Initial residual = 0.01208372, Final residual = 0.00041637235, No Iterations 3
smoothSolver:  Solving for Uz, Initial residual = 0.0015962958, Final residual = 5.5312455e-05, No Iterations 3
GAMG:  Solving for p, Initial residual = 0.014353042, Final residual = 0.00013402958, No Iterations 3
time step continuity errors : sum local = 1.5828465e-05, global = 2.2614738e-07, cumulative = 0.00020109027
ExecutionTime = 14.223536 s  ClockTime = 14 s

Time = 64s

smoothSolver:  Solving for Ux, Initial residual = 0.0011421273, Final residual = 3.9070469e-05, No Iterations 3
smoothSolver:  Solving for Uy, Initial residual = 0.011881069, Final residual = 0.00040940675, No Iterations 3
smoothSolver:  Solving for Uz, Initial residual = 0.001577435, Final residual = 5.4685116e-05, No Iterations 3
GAMG:  Solving for p, Initial residual = 0.014172226, Final residual = 9.0905854e-05, No Iterations 4
time step continuity errors : sum local = 1.0761925e-05, global = 9.7710994e-08, cumulative = 0.00020118798
ExecutionTime = 14.438561 s  ClockTime = 15 s

Time = 65s

smoothSolver:  Solving for Ux, Initial residual = 0.001135334, Final residual = 3.8835131e-05, No Iterations 3
smoothSolver:  Solving for Uy, Initial residual = 0.011687126, Final residual = 0.0004027298, No Iterations 3
smoothSolver:  Solving for Uz, Initial residual = 0.001558363, Final residual = 5.4034925e-05, No Iterations 3
GAMG:  Solving for p, Initial residual = 0.014051153, Final residual = 0.00012920427, No Iterations 3
time step continuity errors : sum local = 1.5320636e-05, global = 2.6476701e-07, cumulative = 0.00020145274
ExecutionTime = 14.641587 s  ClockTime = 15 s

Time = 66s

smoothSolver:  Solving for Ux, Initial residual = 0.0011279842, Final residual = 3.8589432e-05, No Iterations 3
smoothSolver:  Solving for Uy, Initial residual = 0.011480889, Final residual = 0.00039573252, No Iterations 3
smoothSolver:  Solving for Uz, Initial residual = 0.0015407335, Final residual = 5.3451487e-05, No Iterations 3
GAMG:  Solving for p, Initial residual = 0.013883444, Final residual = 0.00012874189, No Iterations 3
time step continuity errors : sum local = 1.5302073e-05, global = 2.8367609e-07, cumulative = 0.00020173642
ExecutionTime = 14.84615 s  ClockTime = 15 s

Time = 67s

smoothSolver:  Solving for Ux, Initial residual = 0.0011207634, Final residual = 3.8342683e-05, No Iterations 3
smoothSolver:  Solving for Uy, Initial residual = 0.011278661, Final residual = 0.00038884415, No Iterations 3
smoothSolver:  Solving for Uz, Initial residual = 0.0015236134, Final residual = 5.2883902e-05, No Iterations 3
GAMG:  Solving for p, Initial residual = 0.013724312, Final residual = 0.00013334319, No Iterations 3
time step continuity errors : sum local = 1.5885748e-05, global = 2.9709732e-07, cumulative = 0.00020203352
ExecutionTime = 15.049904 s  ClockTime = 15 s

Time = 68s

smoothSolver:  Solving for Ux, Initial residual = 0.0011139952, Final residual = 3.8109895e-05, No Iterations 3
smoothSolver:  Solving for Uy, Initial residual = 0.011087824, Final residual = 0.00038233379, No Iterations 3
smoothSolver:  Solving for Uz, Initial residual = 0.0015067622, Final residual = 5.2325187e-05, No Iterations 3
GAMG:  Solving for p, Initial residual = 0.013566934, Final residual = 9.1770486e-05, No Iterations 4
time step continuity errors : sum local = 1.0957001e-05, global = 1.1052275e-07, cumulative = 0.00020214404
ExecutionTime = 15.268141 s  ClockTime = 15 s

Time = 69s

smoothSolver:  Solving for Ux, Initial residual = 0.0011081061, Final residual = 3.7899415e-05, No Iterations 3
smoothSolver:  Solving for Uy, Initial residual = 0.010916488, Final residual = 0.0003764392, No Iterations 3
smoothSolver:  Solving for Uz, Initial residual = 0.0014895428, Final residual = 5.1740835e-05, No Iterations 3
GAMG:  Solving for p, Initial residual = 0.013468569, Final residual = 0.00011720981, No Iterations 3
time step continuity errors : sum local = 1.4015329e-05, global = 2.5643183e-07, cumulative = 0.00020240047
ExecutionTime = 15.474452 s  ClockTime = 16 s

Time = 70s

smoothSolver:  Solving for Ux, Initial residual = 0.001102008, Final residual = 3.7695576e-05, No Iterations 3
smoothSolver:  Solving for Uy, Initial residual = 0.010741306, Final residual = 0.00037042451, No Iterations 3
smoothSolver:  Solving for Uz, Initial residual = 0.0014734354, Final residual = 5.1210102e-05, No Iterations 3
GAMG:  Solving for p, Initial residual = 0.013316296, Final residual = 0.00011860947, No Iterations 3
time step continuity errors : sum local = 1.4216023e-05, global = 2.3334584e-07, cumulative = 0.00020263382
ExecutionTime = 15.680428 s  ClockTime = 16 s

Time = 71s

smoothSolver:  Solving for Ux, Initial residual = 0.0010964513, Final residual = 3.7512085e-05, No Iterations 3
smoothSolver:  Solving for Uy, Initial residual = 0.010571295, Final residual = 0.00036459581, No Iterations 3
smoothSolver:  Solving for Uz, Initial residual = 0.0014575904, Final residual = 5.0686164e-05, No Iterations 3
GAMG:  Solving for p, Initial residual = 0.013157186, Final residual = 0.00012611745, No Iterations 3
time step continuity errors : sum local = 1.5150734e-05, global = 2.2109697e-07, cumulative = 0.00020285491
ExecutionTime = 15.888396 s  ClockTime = 16 s

Time = 72s

smoothSolver:  Solving for Ux, Initial residual = 0.0010912959, Final residual = 3.7345104e-05, No Iterations 3
smoothSolver:  Solving for Uy, Initial residual = 0.01040388, Final residual = 0.00035886433, No Iterations 3
smoothSolver:  Solving for Uz, Initial residual = 0.0014418685, Final residual = 5.0165143e-05, No Iterations 3
GAMG:  Solving for p, Initial residual = 0.013016041, Final residual = 8.4032326e-05, No Iterations 4
time step continuity errors : sum local = 1.0116699e-05, global = 8.3073847e-08, cumulative = 0.00020293799
ExecutionTime = 16.109745 s  ClockTime = 16 s

Time = 73s

smoothSolver:  Solving for Ux, Initial residual = 0.0010866453, Final residual = 3.7190558e-05, No Iterations 3
smoothSolver:  Solving for Uy, Initial residual = 0.010241907, Final residual = 0.00035335158, No Iterations 3
smoothSolver:  Solving for Uz, Initial residual = 0.0014257555, Final residual = 4.9620661e-05, No Iterations 3
GAMG:  Solving for p, Initial residual = 0.012918481, Final residual = 0.00011415099, No Iterations 3
time step continuity errors : sum local = 1.376309e-05, global = 2.0402042e-07, cumulative = 0.00020314201
ExecutionTime = 16.315708 s  ClockTime = 16 s

Time = 74s

smoothSolver:  Solving for Ux, Initial residual = 0.0010811356, Final residual = 3.7018946e-05, No Iterations 3
smoothSolver:  Solving for Uy, Initial residual = 0.01006995, Final residual = 0.000347602, No Iterations 3
smoothSolver:  Solving for Uz, Initial residual = 0.0014107896, Final residual = 4.9133536e-05, No Iterations 3
GAMG:  Solving for p, Initial residual = 0.012770409, Final residual = 0.00011360823, No Iterations 3
time step continuity errors : sum local = 1.3727915e-05, global = 2.1226435e-07, cumulative = 0.00020335427
ExecutionTime = 16.520672 s  ClockTime = 17 s

Time = 75s

smoothSolver:  Solving for Ux, Initial residual = 0.0010758226, Final residual = 3.6853356e-05, No Iterations 3
smoothSolver:  Solving for Uy, Initial residual = 0.0099037953, Final residual = 0.00034204828, No Iterations 3
smoothSolver:  Solving for Uz, Initial residual = 0.0013961917, Final residual = 4.865933e-05, No Iterations 3
GAMG:  Solving for p, Initial residual = 0.01264093, Final residual = 0.00011888453, No Iterations 3
time step continuity errors : sum local = 1.4396803e-05, global = 2.2934575e-07, cumulative = 0.00020358362
ExecutionTime = 16.727115 s  ClockTime = 17 s

Time = 76s

smoothSolver:  Solving for Ux, Initial residual = 0.0010708814, Final residual = 3.6701732e-05, No Iterations 3
smoothSolver:  Solving for Uy, Initial residual = 0.0097480926, Final residual = 0.00033685114, No Iterations 3
smoothSolver:  Solving for Uz, Initial residual = 0.0013818697, Final residual = 4.8194457e-05, No Iterations 3
GAMG:  Solving for p, Initial residual = 0.012517293, Final residual = 8.173559e-05, No Iterations 4
time step continuity errors : sum local = 9.9184926e-06, global = 9.1351688e-08, cumulative = 0.00020367497
ExecutionTime = 16.945856 s  ClockTime = 17 s

Time = 77s

smoothSolver:  Solving for Ux, Initial residual = 0.0010666933, Final residual = 3.6567858e-05, No Iterations 3
smoothSolver:  Solving for Uy, Initial residual = 0.0096058546, Final residual = 0.00033209753, No Iterations 3
smoothSolver:  Solving for Uz, Initial residual = 0.0013674057, Final residual = 4.7713247e-05, No Iterations 3
GAMG:  Solving for p, Initial residual = 0.012429329, Final residual = 0.0001087645, No Iterations 3
time step continuity errors : sum local = 1.3217742e-05, global = 2.2568977e-07, cumulative = 0.00020390066
ExecutionTime = 17.150305 s  ClockTime = 17 s

Time = 78s

smoothSolver:  Solving for Ux, Initial residual = 0.0010619201, Final residual = 3.6422292e-05, No Iterations 3
smoothSolver:  Solving for Uy, Initial residual = 0.0094567174, Final residual = 0.00032718562, No Iterations 3
smoothSolver:  Solving for Uz, Initial residual = 0.0013537837, Final residual = 4.7273344e-05, No Iterations 3
GAMG:  Solving for p, Initial residual = 0.012299748, Final residual = 0.00010982678, No Iterations 3
time step continuity errors : sum local = 1.3375145e-05, global = 2.2362372e-07, cumulative = 0.00020412428
ExecutionTime = 17.356995 s  ClockTime = 17 s

Time = 79s

smoothSolver:  Solving for Ux, Initial residual = 0.0010574803, Final residual = 3.6283191e-05, No Iterations 3
smoothSolver:  Solving for Uy, Initial residual = 0.0093101014, Final residual = 0.00032233371, No Iterations 3
smoothSolver:  Solving for Uz, Initial residual = 0.0013404245, Final residual = 4.6836214e-05, No Iterations 3
GAMG:  Solving for p, Initial residual = 0.012194426, Final residual = 0.00011553993, No Iterations 3
time step continuity errors : sum local = 1.4100094e-05, global = 2.2501979e-07, cumulative = 0.0002043493
ExecutionTime = 17.561476 s  ClockTime = 18 s

Time = 80s

smoothSolver:  Solving for Ux, Initial residual = 0.001053398, Final residual = 3.6154082e-05, No Iterations 3
smoothSolver:  Solving for Uy, Initial residual = 0.0091678863, Final residual = 0.00031762264, No Iterations 3
smoothSolver:  Solving for Uz, Initial residual = 0.0013272148, Final residual = 4.6400418e-05, No Iterations 3
GAMG:  Solving for p, Initial residual = 0.012112295, Final residual = 7.7194658e-05, No Iterations 4
time step continuity errors : sum local = 9.4391982e-06, global = 8.5597639e-08, cumulative = 0.0002044349
ExecutionTime = 17.780142 s  ClockTime = 18 s

Time = 81s

smoothSolver:  Solving for Ux, Initial residual = 0.0010500607, Final residual = 3.6042028e-05, No Iterations 3
smoothSolver:  Solving for Uy, Initial residual = 0.0090343597, Final residual = 0.00031321187, No Iterations 3
smoothSolver:  Solving for Uz, Initial residual = 0.0013138547, Final residual = 4.5949637e-05, No Iterations 3
GAMG:  Solving for p, Initial residual = 0.012061884, Final residual = 0.00010471045, No Iterations 3
time step continuity errors : sum local = 1.2821778e-05, global = 1.9491216e-07, cumulative = 0.00020462981
ExecutionTime = 17.985474 s  ClockTime = 18 s

Time = 82s

smoothSolver:  Solving for Ux, Initial residual = 0.00104578, Final residual = 3.5908491e-05, No Iterations 3
smoothSolver:  Solving for Uy, Initial residual = 0.0088974866, Final residual = 0.00030873634, No Iterations 3
smoothSolver:  Solving for Uz, Initial residual = 0.0013012577, Final residual = 4.5536884e-05, No Iterations 3
GAMG:  Solving for p, Initial residual = 0.011955839, Final residual = 0.00010397733, No Iterations 3
time step continuity errors : sum local = 1.2757754e-05, global = 1.8829493e-07, cumulative = 0.00020481811
ExecutionTime = 18.192062 s  ClockTime = 18 s

Time = 83s

smoothSolver:  Solving for Ux, Initial residual = 0.0010417344, Final residual = 3.5784418e-05, No Iterations 3
smoothSolver:  Solving for Uy, Initial residual = 0.0087667379, Final residual = 0.00030446359, No Iterations 3
smoothSolver:  Solving for Uz, Initial residual = 0.0012889097, Final residual = 4.5131131e-05, No Iterations 3
GAMG:  Solving for p, Initial residual = 0.011851379, Final residual = 0.00010807661, No Iterations 3
time step continuity errors : sum local = 1.3287394e-05, global = 1.9117927e-07, cumulative = 0.00020500929
ExecutionTime = 18.398375 s  ClockTime = 18 s

Time = 84s

smoothSolver:  Solving for Ux, Initial residual = 0.0010379984, Final residual = 3.5672857e-05, No Iterations 3
smoothSolver:  Solving for Uy, Initial residual = 0.0086394539, Final residual = 0.00030031687, No Iterations 3
smoothSolver:  Solving for Uz, Initial residual = 0.0012766983, Final residual = 4.4729123e-05, No Iterations 3
GAMG:  Solving for p, Initial residual = 0.011751352, Final residual = 0.00011369661, No Iterations 3
time step continuity errors : sum local = 1.4005066e-05, global = 1.9660814e-07, cumulative = 0.0002052059
ExecutionTime = 18.604643 s  ClockTime = 19 s

Time = 85s

smoothSolver:  Solving for Ux, Initial residual = 0.0010344867, Final residual = 3.5568292e-05, No Iterations 3
smoothSolver:  Solving for Uy, Initial residual = 0.0085132574, Final residual = 0.00029616763, No Iterations 3
smoothSolver:  Solving for Uz, Initial residual = 0.0012645769, Final residual = 4.4326972e-05, No Iterations 3
GAMG:  Solving for p, Initial residual = 0.011657327, Final residual = 7.3052233e-05, No Iterations 4
time step continuity errors : sum local = 9.0146596e-06, global = 7.839647e-08, cumulative = 0.00020528429
ExecutionTime = 18.821472 s  ClockTime = 19 s

Time = 86s

smoothSolver:  Solving for Ux, Initial residual = 0.0010314122, Final residual = 3.5473689e-05, No Iterations 3
smoothSolver:  Solving for Uy, Initial residual = 0.0083881794, Final residual = 0.00029204045, No Iterations 3
smoothSolver:  Solving for Uz, Initial residual = 0.0012522731, Final residual = 4.3909573e-05, No Iterations 3
GAMG:  Solving for p, Initial residual = 0.011598174, Final residual = 9.8857695e-05, No Iterations 3
time step continuity errors : sum local = 1.2214805e-05, global = 1.7978035e-07, cumulative = 0.00020546407
ExecutionTime = 19.027164 s  ClockTime = 19 s

Time = 87s

smoothSolver:  Solving for Ux, Initial residual = 0.0010274034, Final residual = 3.5356846e-05, No Iterations 3
smoothSolver:  Solving for Uy, Initial residual = 0.0082585841, Final residual = 0.0002877558, No Iterations 3
smoothSolver:  Solving for Uz, Initial residual = 0.0012406436, Final residual = 4.3528273e-05, No Iterations 3
GAMG:  Solving for p, Initial residual = 0.011481651, Final residual = 9.6437917e-05, No Iterations 3
time step continuity errors : sum local = 1.1938382e-05, global = 1.7622842e-07, cumulative = 0.0002056403
ExecutionTime = 19.233607 s  ClockTime = 19 s

Time = 88s

smoothSolver:  Solving for Ux, Initial residual = 0.0010234937, Final residual = 3.5241798e-05, No Iterations 3
smoothSolver:  Solving for Uy, Initial residual = 0.0081319682, Final residual = 0.00028350304, No Iterations 3
smoothSolver:  Solving for Uz, Initial residual = 0.0012292124, Final residual = 4.3152843e-05, No Iterations 3
GAMG:  Solving for p, Initial residual = 0.011367666, Final residual = 9.9770405e-05, No Iterations 3
time step continuity errors : sum local = 1.2374451e-05, global = 1.7785673e-07, cumulative = 0.00020581816
ExecutionTime = 19.44407 s  ClockTime = 20 s

Time = 89s

smoothSolver:  Solving for Ux, Initial residual = 0.0010198757, Final residual = 3.5136898e-05, No Iterations 3
smoothSolver:  Solving for Uy, Initial residual = 0.0080115523, Final residual = 0.00027937379, No Iterations 3
smoothSolver:  Solving for Uz, Initial residual = 0.001217959, Final residual = 4.2783025e-05, No Iterations 3
GAMG:  Solving for p, Initial residual = 0.011264995, Final residual = 0.00010565403, No Iterations 3
time step continuity errors : sum local = 1.3128441e-05, global = 1.809912e-07, cumulative = 0.00020599915
ExecutionTime = 19.652076 s  ClockTime = 20 s

Time = 90s

smoothSolver:  Solving for Ux, Initial residual = 0.0010165821, Final residual = 3.5041229e-05, No Iterations 3
smoothSolver:  Solving for Uy, Initial residual = 0.0078982593, Final residual = 0.00027544755, No Iterations 3
smoothSolver:  Solving for Uz, Initial residual = 0.0012069036, Final residual = 4.2418375e-05, No Iterations 3
GAMG:  Solving for p, Initial residual = 0.011173946, Final residual = 0.00011045768, No Iterations 3
time step continuity errors : sum local = 1.3749784e-05, global = 1.852828e-07, cumulative = 0.00020618443
ExecutionTime = 19.858952 s  ClockTime = 20 s

Time = 91s

smoothSolver:  Solving for Ux, Initial residual = 0.001013473, Final residual = 3.4952267e-05, No Iterations 3
smoothSolver:  Solving for Uy, Initial residual = 0.0077912297, Final residual = 0.00027175235, No Iterations 3
smoothSolver:  Solving for Uz, Initial residual = 0.0011960787, Final residual = 4.2061675e-05, No Iterations 3
GAMG:  Solving for p, Initial residual = 0.01109131, Final residual = 6.8815505e-05, No Iterations 4
time step continuity errors : sum local = 8.5808462e-06, global = 7.3850201e-08, cumulative = 0.00020625828
ExecutionTime = 20.077205 s  ClockTime = 20 s

Time = 92s

smoothSolver:  Solving for Ux, Initial residual = 0.0010108545, Final residual = 3.4875823e-05, No Iterations 3
smoothSolver:  Solving for Uy, Initial residual = 0.0076898677, Final residual = 0.000268251, No Iterations 3
smoothSolver:  Solving for Uz, Initial residual = 0.0011853321, Final residual = 4.1701705e-05, No Iterations 3
GAMG:  Solving for p, Initial residual = 0.011052784, Final residual = 9.2669396e-05, No Iterations 3
time step continuity errors : sum local = 1.157061e-05, global = 1.6947625e-07, cumulative = 0.00020642776
ExecutionTime = 20.285891 s  ClockTime = 20 s

Time = 93s

smoothSolver:  Solving for Ux, Initial residual = 0.0010072682, Final residual = 3.4775265e-05, No Iterations 3
smoothSolver:  Solving for Uy, Initial residual = 0.0075847651, Final residual = 0.00026468065, No Iterations 3
smoothSolver:  Solving for Uz, Initial residual = 0.0011750783, Final residual = 4.1371409e-05, No Iterations 3
GAMG:  Solving for p, Initial residual = 0.010980955, Final residual = 8.9937849e-05, No Iterations 3
time step continuity errors : sum local = 1.1251025e-05, global = 1.5897091e-07, cumulative = 0.00020658673
ExecutionTime = 20.493069 s  ClockTime = 21 s

Time = 94s

smoothSolver:  Solving for Ux, Initial residual = 0.0010038644, Final residual = 3.4682251e-05, No Iterations 3
smoothSolver:  Solving for Uy, Initial residual = 0.0074800382, Final residual = 0.00026114528, No Iterations 3
smoothSolver:  Solving for Uz, Initial residual = 0.0011649933, Final residual = 4.1046647e-05, No Iterations 3
GAMG:  Solving for p, Initial residual = 0.01089943, Final residual = 9.3178532e-05, No Iterations 3
time step continuity errors : sum local = 1.1679203e-05, global = 1.6757846e-07, cumulative = 0.00020675431
ExecutionTime = 20.699621 s  ClockTime = 21 s

Time = 95s

smoothSolver:  Solving for Ux, Initial residual = 0.0010007715, Final residual = 3.4602423e-05, No Iterations 3
smoothSolver:  Solving for Uy, Initial residual = 0.0073758409, Final residual = 0.0002575956, No Iterations 3
smoothSolver:  Solving for Uz, Initial residual = 0.0011549548, Final residual = 4.0722357e-05, No Iterations 3
GAMG:  Solving for p, Initial residual = 0.010820741, Final residual = 9.9174342e-05, No Iterations 3
time step continuity errors : sum local = 1.2454483e-05, global = 1.8109946e-07, cumulative = 0.00020693541
ExecutionTime = 20.90411 s  ClockTime = 21 s

Time = 96s

smoothSolver:  Solving for Ux, Initial residual = 0.0009979079, Final residual = 3.4531646e-05, No Iterations 3
smoothSolver:  Solving for Uy, Initial residual = 0.0072728549, Final residual = 0.00025402038, No Iterations 3
smoothSolver:  Solving for Uz, Initial residual = 0.0011449688, Final residual = 4.039862e-05, No Iterations 3
GAMG:  Solving for p, Initial residual = 0.010744168, Final residual = 0.00010491985, No Iterations 3
time step continuity errors : sum local = 1.3199882e-05, global = 1.9112057e-07, cumulative = 0.00020712653
ExecutionTime = 21.111562 s  ClockTime = 21 s

Time = 97s

smoothSolver:  Solving for Ux, Initial residual = 0.00099504733, Final residual = 3.4458435e-05, No Iterations 3
smoothSolver:  Solving for Uy, Initial residual = 0.0071706259, Final residual = 0.00025043445, No Iterations 3
smoothSolver:  Solving for Uz, Initial residual = 0.0011350597, Final residual = 4.0075958e-05, No Iterations 3
GAMG:  Solving for p, Initial residual = 0.010661167, Final residual = 6.6184661e-05, No Iterations 4
time step continuity errors : sum local = 8.3407082e-06, global = 8.0592088e-08, cumulative = 0.00020720712
ExecutionTime = 21.329524 s  ClockTime = 21 s

Time = 98s

smoothSolver:  Solving for Ux, Initial residual = 0.0009924121, Final residual = 3.4383213e-05, No Iterations 3
smoothSolver:  Solving for Uy, Initial residual = 0.0070694997, Final residual = 0.00024687246, No Iterations 3
smoothSolver:  Solving for Uz, Initial residual = 0.0011251479, Final residual = 3.9744021e-05, No Iterations 3
GAMG:  Solving for p, Initial residual = 0.010604338, Final residual = 9.0594225e-05, No Iterations 3
time step continuity errors : sum local = 1.1431213e-05, global = 1.6837278e-07, cumulative = 0.00020737549
ExecutionTime = 21.537285 s  ClockTime = 22 s

Time = 99s

smoothSolver:  Solving for Ux, Initial residual = 0.0009887237, Final residual = 3.427466e-05, No Iterations 3
smoothSolver:  Solving for Uy, Initial residual = 0.0069666696, Final residual = 0.00024332034, No Iterations 3
smoothSolver:  Solving for Uz, Initial residual = 0.0011156718, Final residual = 3.9435282e-05, No Iterations 3
GAMG:  Solving for p, Initial residual = 0.010514974, Final residual = 8.7689688e-05, No Iterations 3
time step continuity errors : sum local = 1.1084222e-05, global = 1.5964305e-07, cumulative = 0.00020753514
ExecutionTime = 21.744117 s  ClockTime = 22 s

Time = 100s

smoothSolver:  Solving for Ux, Initial residual = 0.00098519287, Final residual = 3.4168673e-05, No Iterations 3
smoothSolver:  Solving for Uy, Initial residual = 0.0068677369, Final residual = 0.00023990774, No Iterations 3
smoothSolver:  Solving for Uz, Initial residual = 0.0011063536, Final residual = 3.9131611e-05, No Iterations 3
GAMG:  Solving for p, Initial residual = 0.010432022, Final residual = 9.0257957e-05, No Iterations 3
time step continuity errors : sum local = 1.1429151e-05, global = 1.5755636e-07, cumulative = 0.00020769269
ExecutionTime = 21.952704 s  ClockTime = 22 s

Time = 101s

smoothSolver:  Solving for Ux, Initial residual = 0.00098208464, Final residual = 3.4073755e-05, No Iterations 3
smoothSolver:  Solving for Uy, Initial residual = 0.0067744059, Final residual = 0.00023667456, No Iterations 3
smoothSolver:  Solving for Uz, Initial residual = 0.0010971514, Final residual = 3.8828349e-05, No Iterations 3
GAMG:  Solving for p, Initial residual = 0.010363328, Final residual = 9.5236845e-05, No Iterations 3
time step continuity errors : sum local = 1.2080629e-05, global = 1.6147869e-07, cumulative = 0.00020785417
ExecutionTime = 22.159607 s  ClockTime = 22 s

Time = 102s

smoothSolver:  Solving for Ux, Initial residual = 0.00097936262, Final residual = 3.3990206e-05, No Iterations 3
smoothSolver:  Solving for Uy, Initial residual = 0.0066861303, Final residual = 0.00023358536, No Iterations 3
smoothSolver:  Solving for Uz, Initial residual = 0.0010880551, Final residual = 3.8527903e-05, No Iterations 3
GAMG:  Solving for p, Initial residual = 0.010314254, Final residual = 9.9628734e-05, No Iterations 3
time step continuity errors : sum local = 1.2658831e-05, global = 1.6716556e-07, cumulative = 0.00020802134
ExecutionTime = 22.364669 s  ClockTime = 22 s

Time = 103s

smoothSolver:  Solving for Ux, Initial residual = 0.0009767811, Final residual = 3.3910853e-05, No Iterations 3
smoothSolver:  Solving for Uy, Initial residual = 0.0065998704, Final residual = 0.00023053232, No Iterations 3
smoothSolver:  Solving for Uz, Initial residual = 0.0010790739, Final residual = 3.8230746e-05, No Iterations 3
GAMG:  Solving for p, Initial residual = 0.010280072, Final residual = 0.00010146771, No Iterations 3
time step continuity errors : sum local = 1.2913375e-05, global = 1.7054527e-07, cumulative = 0.00020819188
ExecutionTime = 22.571291 s  ClockTime = 23 s

Time = 104s

smoothSolver:  Solving for Ux, Initial residual = 0.00097409303, Final residual = 3.3825124e-05, No Iterations 3
smoothSolver:  Solving for Uy, Initial residual = 0.0065132796, Final residual = 0.00022741326, No Iterations 3
smoothSolver:  Solving for Uz, Initial residual = 0.0010702593, Final residual = 3.7937441e-05, No Iterations 3
GAMG:  Solving for p, Initial residual = 0.010241259, Final residual = 9.9923001e-05, No Iterations 3
time step continuity errors : sum local = 1.27368e-05, global = 1.7740269e-07, cumulative = 0.00020836928
ExecutionTime = 22.783857 s  ClockTime = 23 s

Time = 105s

smoothSolver:  Solving for Ux, Initial residual = 0.00097118097, Final residual = 3.3729791e-05, No Iterations 3
smoothSolver:  Solving for Uy, Initial residual = 0.00642559, Final residual = 0.00022421112, No Iterations 3
smoothSolver:  Solving for Uz, Initial residual = 0.0010615855, Final residual = 3.7647291e-05, No Iterations 3
GAMG:  Solving for p, Initial residual = 0.010199998, Final residual = 9.6782139e-05, No Iterations 3
time step continuity errors : sum local = 1.2355989e-05, global = 1.7665376e-07, cumulative = 0.00020854594
ExecutionTime = 22.99059 s  ClockTime = 23 s

Time = 106s

smoothSolver:  Solving for Ux, Initial residual = 0.00096808879, Final residual = 3.3626944e-05, No Iterations 3
smoothSolver:  Solving for Uy, Initial residual = 0.0063387073, Final residual = 0.00022103664, No Iterations 3
smoothSolver:  Solving for Uz, Initial residual = 0.0010530481, Final residual = 3.7359098e-05, No Iterations 3
GAMG:  Solving for p, Initial residual = 0.010137609, Final residual = 9.3319107e-05, No Iterations 3
time step continuity errors : sum local = 1.1932976e-05, global = 1.7285794e-07, cumulative = 0.0002087188
ExecutionTime = 23.195149 s  ClockTime = 23 s

Time = 107s

smoothSolver:  Solving for Ux, Initial residual = 0.00096495231, Final residual = 3.3523488e-05, No Iterations 3
smoothSolver:  Solving for Uy, Initial residual = 0.0062556622, Final residual = 0.00021799064, No Iterations 3
smoothSolver:  Solving for Uz, Initial residual = 0.0010446207, Final residual = 3.7072774e-05, No Iterations 3
GAMG:  Solving for p, Initial residual = 0.010065838, Final residual = 9.1034816e-05, No Iterations 3
time step continuity errors : sum local = 1.1659667e-05, global = 1.6726185e-07, cumulative = 0.00020888606
ExecutionTime = 23.399974 s  ClockTime = 24 s

Time = 108s

smoothSolver:  Solving for Ux, Initial residual = 0.00096187236, Final residual = 3.3422911e-05, No Iterations 3
smoothSolver:  Solving for Uy, Initial residual = 0.0061758854, Final residual = 0.00021509787, No Iterations 3
smoothSolver:  Solving for Uz, Initial residual = 0.0010362799, Final residual = 3.6787058e-05, No Iterations 3
GAMG:  Solving for p, Initial residual = 0.010000653, Final residual = 9.0195966e-05, No Iterations 3
time step continuity errors : sum local = 1.157102e-05, global = 1.6113256e-07, cumulative = 0.00020904719
ExecutionTime = 23.603459 s  ClockTime = 24 s

Time = 109s

smoothSolver:  Solving for Ux, Initial residual = 0.00095890496, Final residual = 3.3326921e-05, No Iterations 3
smoothSolver:  Solving for Uy, Initial residual = 0.0060985485, Final residual = 0.0002123374, No Iterations 3
smoothSolver:  Solving for Uz, Initial residual = 0.0010280116, Final residual = 3.6503002e-05, No Iterations 3
GAMG:  Solving for p, Initial residual = 0.0099406258, Final residual = 9.0362742e-05, No Iterations 3
time step continuity errors : sum local = 1.1610981e-05, global = 1.5415467e-07, cumulative = 0.00020920135
ExecutionTime = 23.807507 s  ClockTime = 24 s

Time = 110s

smoothSolver:  Solving for Ux, Initial residual = 0.00095599847, Final residual = 3.3236553e-05, No Iterations 3
smoothSolver:  Solving for Uy, Initial residual = 0.0060228683, Final residual = 0.0002096702, No Iterations 3
smoothSolver:  Solving for Uz, Initial residual = 0.0010198193, Final residual = 3.6223289e-05, No Iterations 3
GAMG:  Solving for p, Initial residual = 0.0098843174, Final residual = 9.0560953e-05, No Iterations 3
time step continuity errors : sum local = 1.1654753e-05, global = 1.499287e-07, cumulative = 0.00020935127
ExecutionTime = 24.010417 s  ClockTime = 24 s

Time = 111s

smoothSolver:  Solving for Ux, Initial residual = 0.00095303896, Final residual = 3.3146865e-05, No Iterations 3
smoothSolver:  Solving for Uy, Initial residual = 0.0059465064, Final residual = 0.00020696279, No Iterations 3
smoothSolver:  Solving for Uz, Initial residual = 0.0010117207, Final residual = 3.5946995e-05, No Iterations 3
GAMG:  Solving for p, Initial residual = 0.009831531, Final residual = 9.0350223e-05, No Iterations 3
time step continuity errors : sum local = 1.1645565e-05, global = 1.467917e-07, cumulative = 0.00020949807
ExecutionTime = 24.213762 s  ClockTime = 24 s

Time = 112s

smoothSolver:  Solving for Ux, Initial residual = 0.00094997147, Final residual = 3.3052331e-05, No Iterations 3
smoothSolver:  Solving for Uy, Initial residual = 0.0058702336, Final residual = 0.00020419967, No Iterations 3
smoothSolver:  Solving for Uz, Initial residual = 0.0010037348, Final residual = 3.5673578e-05, No Iterations 3
GAMG:  Solving for p, Initial residual = 0.0097738389, Final residual = 8.9810233e-05, No Iterations 3
time step continuity errors : sum local = 1.1593642e-05, global = 1.4483325e-07, cumulative = 0.0002096429
ExecutionTime = 24.417798 s  ClockTime = 25 s

Time = 113s

smoothSolver:  Solving for Ux, Initial residual = 0.00094681069, Final residual = 3.2950574e-05, No Iterations 3
smoothSolver:  Solving for Uy, Initial residual = 0.0057954361, Final residual = 0.00020146438, No Iterations 3
smoothSolver:  Solving for Uz, Initial residual = 0.00099588864, Final residual = 3.5403708e-05, No Iterations 3
GAMG:  Solving for p, Initial residual = 0.0097069711, Final residual = 8.9081047e-05, No Iterations 3
time step continuity errors : sum local = 1.1517019e-05, global = 1.437062e-07, cumulative = 0.00020978661
ExecutionTime = 24.621217 s  ClockTime = 25 s

Time = 114s

smoothSolver:  Solving for Ux, Initial residual = 0.00094364104, Final residual = 3.2845795e-05, No Iterations 3
smoothSolver:  Solving for Uy, Initial residual = 0.0057239775, Final residual = 0.00019885659, No Iterations 3
smoothSolver:  Solving for Uz, Initial residual = 0.00098818445, Final residual = 3.5137838e-05, No Iterations 3
GAMG:  Solving for p, Initial residual = 0.0096405173, Final residual = 8.8268753e-05, No Iterations 3
time step continuity errors : sum local = 1.1429257e-05, global = 1.4239654e-07, cumulative = 0.000209929
ExecutionTime = 24.826776 s  ClockTime = 25 s

Time = 115s

smoothSolver:  Solving for Ux, Initial residual = 0.00094055577, Final residual = 3.2742333e-05, No Iterations 3
smoothSolver:  Solving for Uy, Initial residual = 0.0056587244, Final residual = 0.00019647867, No Iterations 3
smoothSolver:  Solving for Uz, Initial residual = 0.00098062467, Final residual = 3.4875923e-05, No Iterations 3
GAMG:  Solving for p, Initial residual = 0.0095754084, Final residual = 8.7520323e-05, No Iterations 3
time step continuity errors : sum local = 1.1349381e-05, global = 1.4041273e-07, cumulative = 0.00021006941
ExecutionTime = 25.030727 s  ClockTime = 25 s

Time = 116s

smoothSolver:  Solving for Ux, Initial residual = 0.00093757556, Final residual = 3.2642079e-05, No Iterations 3
smoothSolver:  Solving for Uy, Initial residual = 0.0056000289, Final residual = 0.00019433553, No Iterations 3
smoothSolver:  Solving for Uz, Initial residual = 0.00097320378, Final residual = 3.4619005e-05, No Iterations 3
GAMG:  Solving for p, Initial residual = 0.009528653, Final residual = 8.7013073e-05, No Iterations 3
time step continuity errors : sum local = 1.1300491e-05, global = 1.3737487e-07, cumulative = 0.00021020679
ExecutionTime = 25.23469 s  ClockTime = 25 s

Time = 117s

smoothSolver:  Solving for Ux, Initial residual = 0.00093467441, Final residual = 3.254282e-05, No Iterations 3
smoothSolver:  Solving for Uy, Initial residual = 0.0055458393, Final residual = 0.00019235664, No Iterations 3
smoothSolver:  Solving for Uz, Initial residual = 0.00096591091, Final residual = 3.4365962e-05, No Iterations 3
GAMG:  Solving for p, Initial residual = 0.009495276, Final residual = 8.6417416e-05, No Iterations 3
time step continuity errors : sum local = 1.1240017e-05, global = 1.3368932e-07, cumulative = 0.00021034048
ExecutionTime = 25.438125 s  ClockTime = 26 s

Time = 118s

smoothSolver:  Solving for Ux, Initial residual = 0.00093177803, Final residual = 3.2441551e-05, No Iterations 3
smoothSolver:  Solving for Uy, Initial residual = 0.0054928881, Final residual = 0.00019042654, No Iterations 3
smoothSolver:  Solving for Uz, Initial residual = 0.00095872011, Final residual = 3.4115466e-05, No Iterations 3
GAMG:  Solving for p, Initial residual = 0.0094702503, Final residual = 8.5436902e-05, No Iterations 3
time step continuity errors : sum local = 1.1129192e-05, global = 1.298083e-07, cumulative = 0.00021047029
ExecutionTime = 25.64529 s  ClockTime = 26 s

Time = 119s

smoothSolver:  Solving for Ux, Initial residual = 0.00092881063, Final residual = 3.2336803e-05, No Iterations 3
smoothSolver:  Solving for Uy, Initial residual = 0.0054383011, Final residual = 0.00018843392, No Iterations 3
smoothSolver:  Solving for Uz, Initial residual = 0.00095158113, Final residual = 3.3866723e-05, No Iterations 3
GAMG:  Solving for p, Initial residual = 0.0094418326, Final residual = 8.425846e-05, No Iterations 3
time step continuity errors : sum local = 1.0991995e-05, global = 1.2659057e-07, cumulative = 0.00021059688
ExecutionTime = 25.861943 s  ClockTime = 26 s

Time = 120s

smoothSolver:  Solving for Ux, Initial residual = 0.00092576107, Final residual = 3.2226441e-05, No Iterations 3
smoothSolver:  Solving for Uy, Initial residual = 0.0053803339, Final residual = 0.00018632018, No Iterations 3
smoothSolver:  Solving for Uz, Initial residual = 0.00094447368, Final residual = 3.3617757e-05, No Iterations 3
GAMG:  Solving for p, Initial residual = 0.0093999124, Final residual = 8.3237588e-05, No Iterations 3
time step continuity errors : sum local = 1.0874671e-05, global = 1.2471673e-07, cumulative = 0.00021072159
ExecutionTime = 26.107768 s  ClockTime = 26 s

Time = 121s

smoothSolver:  Solving for Ux, Initial residual = 0.00092264264, Final residual = 3.2112522e-05, No Iterations 3
smoothSolver:  Solving for Uy, Initial residual = 0.0053191045, Final residual = 0.00018407876, No Iterations 3
smoothSolver:  Solving for Uz, Initial residual = 0.00093738212, Final residual = 3.3368385e-05, No Iterations 3
GAMG:  Solving for p, Initial residual = 0.0093660084, Final residual = 8.2640895e-05, No Iterations 3
time step continuity errors : sum local = 1.0812237e-05, global = 1.2409971e-07, cumulative = 0.00021084569
ExecutionTime = 26.310976 s  ClockTime = 26 s

Time = 122s

smoothSolver:  Solving for Ux, Initial residual = 0.00091943689, Final residual = 3.1994272e-05, No Iterations 3
smoothSolver:  Solving for Uy, Initial residual = 0.0052566587, Final residual = 0.00018180744, No Iterations 3
smoothSolver:  Solving for Uz, Initial residual = 0.00093032271, Final residual = 3.3120446e-05, No Iterations 3
GAMG:  Solving for p, Initial residual = 0.009319729, Final residual = 8.2227623e-05, No Iterations 3
time step continuity errors : sum local = 1.077333e-05, global = 1.2367087e-07, cumulative = 0.00021096936
ExecutionTime = 26.516923 s  ClockTime = 27 s

Time = 123s

smoothSolver:  Solving for Ux, Initial residual = 0.00091617303, Final residual = 3.187394e-05, No Iterations 3
smoothSolver:  Solving for Uy, Initial residual = 0.005196655, Final residual = 0.00017959453, No Iterations 3
smoothSolver:  Solving for Uz, Initial residual = 0.00092332683, Final residual = 3.2875605e-05, No Iterations 3
GAMG:  Solving for p, Initial residual = 0.0092621297, Final residual = 8.2129861e-05, No Iterations 3
time step continuity errors : sum local = 1.0775257e-05, global = 1.233232e-07, cumulative = 0.00021109269
ExecutionTime = 26.719743 s  ClockTime = 27 s

Time = 124s

smoothSolver:  Solving for Ux, Initial residual = 0.00091287168, Final residual = 3.1753427e-05, No Iterations 3
smoothSolver:  Solving for Uy, Initial residual = 0.0051411514, Final residual = 0.00017747972, No Iterations 3
smoothSolver:  Solving for Uz, Initial residual = 0.00091640661, Final residual = 3.2633859e-05, No Iterations 3
GAMG:  Solving for p, Initial residual = 0.009211443, Final residual = 8.2387107e-05, No Iterations 3
time step continuity errors : sum local = 1.0823527e-05, global = 1.2569113e-07, cumulative = 0.00021121838
ExecutionTime = 26.925007 s  ClockTime = 27 s

Time = 125s

smoothSolver:  Solving for Ux, Initial residual = 0.00090958141, Final residual = 3.1633977e-05, No Iterations 3
smoothSolver:  Solving for Uy, Initial residual = 0.0050882604, Final residual = 0.00017547803, No Iterations 3
smoothSolver:  Solving for Uz, Initial residual = 0.00090956186, Final residual = 3.2394858e-05, No Iterations 3
GAMG:  Solving for p, Initial residual = 0.0091729054, Final residual = 8.309348e-05, No Iterations 3
time step continuity errors : sum local = 1.0930923e-05, global = 1.2642554e-07, cumulative = 0.0002113448
ExecutionTime = 27.129761 s  ClockTime = 27 s

Time = 126s

smoothSolver:  Solving for Ux, Initial residual = 0.00090633091, Final residual = 3.1515276e-05, No Iterations 3
smoothSolver:  Solving for Uy, Initial residual = 0.0050373671, Final residual = 0.00017361953, No Iterations 3
smoothSolver:  Solving for Uz, Initial residual = 0.0009028171, Final residual = 3.2159717e-05, No Iterations 3
GAMG:  Solving for p, Initial residual = 0.0091363216, Final residual = 8.3271728e-05, No Iterations 3
time step continuity errors : sum local = 1.096905e-05, global = 1.3095307e-07, cumulative = 0.00021147576
ExecutionTime = 27.333438 s  ClockTime = 27 s

Time = 127s

smoothSolver:  Solving for Ux, Initial residual = 0.00090309317, Final residual = 3.1398586e-05, No Iterations 3
smoothSolver:  Solving for Uy, Initial residual = 0.004989093, Final residual = 0.00017186563, No Iterations 3
smoothSolver:  Solving for Uz, Initial residual = 0.00089618272, Final residual = 3.1929081e-05, No Iterations 3
GAMG:  Solving for p, Initial residual = 0.0090817195, Final residual = 8.3093776e-05, No Iterations 3
time step continuity errors : sum local = 1.0960317e-05, global = 1.2866462e-07, cumulative = 0.00021160442
ExecutionTime = 27.538865 s  ClockTime = 28 s

Time = 128s

smoothSolver:  Solving for Ux, Initial residual = 0.00089989621, Final residual = 3.1286473e-05, No Iterations 3
smoothSolver:  Solving for Uy, Initial residual = 0.0049420566, Final residual = 0.0001701692, No Iterations 3
smoothSolver:  Solving for Uz, Initial residual = 0.00088963548, Final residual = 3.1703069e-05, No Iterations 3
GAMG:  Solving for p, Initial residual = 0.0090170038, Final residual = 8.2020803e-05, No Iterations 3
time step continuity errors : sum local = 1.083329e-05, global = 1.2697452e-07, cumulative = 0.0002117314
ExecutionTime = 27.74245 s  ClockTime = 28 s

Time = 129s

smoothSolver:  Solving for Ux, Initial residual = 0.00089671023, Final residual = 3.1178137e-05, No Iterations 3
smoothSolver:  Solving for Uy, Initial residual = 0.0048935001, Final residual = 0.0001684518, No Iterations 3
smoothSolver:  Solving for Uz, Initial residual = 0.00088312978, Final residual = 3.1479514e-05, No Iterations 3
GAMG:  Solving for p, Initial residual = 0.0089586303, Final residual = 8.0657062e-05, No Iterations 3
time step continuity errors : sum local = 1.0667325e-05, global = 1.2398372e-07, cumulative = 0.00021185538
ExecutionTime = 27.945439 s  ClockTime = 28 s

Time = 130s

smoothSolver:  Solving for Ux, Initial residual = 0.0008934986, Final residual = 3.1072485e-05, No Iterations 3
smoothSolver:  Solving for Uy, Initial residual = 0.0048436508, Final residual = 0.00016663083, No Iterations 3
smoothSolver:  Solving for Uz, Initial residual = 0.00087663909, Final residual = 3.1256549e-05, No Iterations 3
[...]
GAMG:  Solving for p, Initial residual = 1.3328222e-05, Final residual = 7.0873395e-08, No Iterations 3
time step continuity errors : sum local = 1.1269041e-08, global = -1.8599436e-10, cumulative = 0.00022562434
ExecutionTime = 236.11815 s  ClockTime = 238 s

Time = 1145s

smoothSolver:  Solving for Ux, Initial residual = 1.5070869e-06, Final residual = 5.4948131e-08, No Iterations 3
smoothSolver:  Solving for Uy, Initial residual = 1.0695468e-05, Final residual = 3.8576262e-07, No Iterations 3
smoothSolver:  Solving for Uz, Initial residual = 8.0842532e-07, Final residual = 2.9267173e-08, No Iterations 3
GAMG:  Solving for p, Initial residual = 1.3201239e-05, Final residual = 7.0301146e-08, No Iterations 3
time step continuity errors : sum local = 1.1178046e-08, global = -1.8870825e-10, cumulative = 0.00022562415
ExecutionTime = 236.32191 s  ClockTime = 238 s

Time = 1146s

smoothSolver:  Solving for Ux, Initial residual = 1.4935731e-06, Final residual = 5.4436806e-08, No Iterations 3
smoothSolver:  Solving for Uy, Initial residual = 1.058843e-05, Final residual = 3.8222519e-07, No Iterations 3
smoothSolver:  Solving for Uz, Initial residual = 8.0174773e-07, Final residual = 2.9031782e-08, No Iterations 3
GAMG:  Solving for p, Initial residual = 1.3076338e-05, Final residual = 6.9730363e-08, No Iterations 3
time step continuity errors : sum local = 1.1087284e-08, global = -1.9106182e-10, cumulative = 0.00022562396
ExecutionTime = 236.52612 s  ClockTime = 238 s

Time = 1147s

smoothSolver:  Solving for Ux, Initial residual = 1.4801886e-06, Final residual = 5.3932068e-08, No Iterations 3
smoothSolver:  Solving for Uy, Initial residual = 1.048294e-05, Final residual = 3.7874334e-07, No Iterations 3
smoothSolver:  Solving for Uz, Initial residual = 7.9510914e-07, Final residual = 2.8800804e-08, No Iterations 3
GAMG:  Solving for p, Initial residual = 1.2952915e-05, Final residual = 6.9149708e-08, No Iterations 3
time step continuity errors : sum local = 1.0994952e-08, global = -1.9319823e-10, cumulative = 0.00022562377
ExecutionTime = 236.73071 s  ClockTime = 239 s

Time = 1148s

smoothSolver:  Solving for Ux, Initial residual = 1.466991e-06, Final residual = 5.3436781e-08, No Iterations 3
smoothSolver:  Solving for Uy, Initial residual = 1.03794e-05, Final residual = 3.7530679e-07, No Iterations 3
smoothSolver:  Solving for Uz, Initial residual = 7.8855838e-07, Final residual = 2.8573156e-08, No Iterations 3
GAMG:  Solving for p, Initial residual = 1.2830518e-05, Final residual = 6.857253e-08, No Iterations 3
time step continuity errors : sum local = 1.0903174e-08, global = -1.9453072e-10, cumulative = 0.00022562357
ExecutionTime = 236.93284 s  ClockTime = 239 s

Time = 1149s

smoothSolver:  Solving for Ux, Initial residual = 1.4540298e-06, Final residual = 5.2945552e-08, No Iterations 3
smoothSolver:  Solving for Uy, Initial residual = 1.0275957e-05, Final residual = 3.7193074e-07, No Iterations 3
smoothSolver:  Solving for Uz, Initial residual = 7.8209376e-07, Final residual = 2.8349507e-08, No Iterations 3
GAMG:  Solving for p, Initial residual = 1.2709029e-05, Final residual = 6.7929222e-08, No Iterations 3
time step continuity errors : sum local = 1.0800881e-08, global = -1.9545023e-10, cumulative = 0.00022562338
ExecutionTime = 237.13471 s  ClockTime = 239 s

Time = 1150s

smoothSolver:  Solving for Ux, Initial residual = 1.4411746e-06, Final residual = 5.2466468e-08, No Iterations 3
smoothSolver:  Solving for Uy, Initial residual = 1.0174395e-05, Final residual = 3.6865006e-07, No Iterations 3
smoothSolver:  Solving for Uz, Initial residual = 7.7576151e-07, Final residual = 2.8131793e-08, No Iterations 3
GAMG:  Solving for p, Initial residual = 1.2589162e-05, Final residual = 6.7260392e-08, No Iterations 3
time step continuity errors : sum local = 1.069453e-08, global = -1.9558126e-10, cumulative = 0.00022562318
ExecutionTime = 237.33987 s  ClockTime = 239 s

Time = 1151s

smoothSolver:  Solving for Ux, Initial residual = 1.4283608e-06, Final residual = 5.1993524e-08, No Iterations 3
smoothSolver:  Solving for Uy, Initial residual = 1.0073779e-05, Final residual = 3.6543805e-07, No Iterations 3
smoothSolver:  Solving for Uz, Initial residual = 7.6952093e-07, Final residual = 2.7916675e-08, No Iterations 3
GAMG:  Solving for p, Initial residual = 1.2470011e-05, Final residual = 6.6721374e-08, No Iterations 3
time step continuity errors : sum local = 1.060882e-08, global = -1.970841e-10, cumulative = 0.00022562298
ExecutionTime = 237.54417 s  ClockTime = 239 s

Time = 1152s

smoothSolver:  Solving for Ux, Initial residual = 1.4156769e-06, Final residual = 5.152449e-08, No Iterations 3
smoothSolver:  Solving for Uy, Initial residual = 9.9755974e-06, Final residual = 3.6228982e-07, No Iterations 3
smoothSolver:  Solving for Uz, Initial residual = 7.633703e-07, Final residual = 2.7704297e-08, No Iterations 3
GAMG:  Solving for p, Initial residual = 1.2351808e-05, Final residual = 6.599727e-08, No Iterations 3
time step continuity errors : sum local = 1.0493681e-08, global = -1.9603604e-10, cumulative = 0.00022562279
ExecutionTime = 237.74707 s  ClockTime = 240 s

Time = 1153s

smoothSolver:  Solving for Ux, Initial residual = 1.4031045e-06, Final residual = 5.1062711e-08, No Iterations 3
smoothSolver:  Solving for Uy, Initial residual = 9.8785523e-06, Final residual = 3.5917482e-07, No Iterations 3
smoothSolver:  Solving for Uz, Initial residual = 7.5728635e-07, Final residual = 2.7490915e-08, No Iterations 3
GAMG:  Solving for p, Initial residual = 1.2235152e-05, Final residual = 6.5289662e-08, No Iterations 3
time step continuity errors : sum local = 1.0381165e-08, global = -1.9423634e-10, cumulative = 0.00022562259
ExecutionTime = 237.95156 s  ClockTime = 240 s

Time = 1154s

smoothSolver:  Solving for Ux, Initial residual = 1.3906843e-06, Final residual = 5.0606063e-08, No Iterations 3
smoothSolver:  Solving for Uy, Initial residual = 9.7834833e-06, Final residual = 3.5606109e-07, No Iterations 3
smoothSolver:  Solving for Uz, Initial residual = 7.512389e-07, Final residual = 2.7278374e-08, No Iterations 3
GAMG:  Solving for p, Initial residual = 1.2118852e-05, Final residual = 6.4656165e-08, No Iterations 3
time step continuity errors : sum local = 1.0280433e-08, global = -1.9160002e-10, cumulative = 0.0002256224
ExecutionTime = 238.15522 s  ClockTime = 240 s

Time = 1155s

smoothSolver:  Solving for Ux, Initial residual = 1.3784531e-06, Final residual = 5.0158273e-08, No Iterations 3
smoothSolver:  Solving for Uy, Initial residual = 9.6899883e-06, Final residual = 3.5301008e-07, No Iterations 3
smoothSolver:  Solving for Uz, Initial residual = 7.4526219e-07, Final residual = 2.7065954e-08, No Iterations 3
GAMG:  Solving for p, Initial residual = 1.2004179e-05, Final residual = 6.4047557e-08, No Iterations 3
time step continuity errors : sum local = 1.0183658e-08, global = -1.8816203e-10, cumulative = 0.00022562221
ExecutionTime = 238.36064 s  ClockTime = 240 s

Time = 1156s

smoothSolver:  Solving for Ux, Initial residual = 1.3662868e-06, Final residual = 4.9714633e-08, No Iterations 3
smoothSolver:  Solving for Uy, Initial residual = 9.5985889e-06, Final residual = 3.499949e-07, No Iterations 3
smoothSolver:  Solving for Uz, Initial residual = 7.3935052e-07, Final residual = 2.6854177e-08, No Iterations 3
GAMG:  Solving for p, Initial residual = 1.1892724e-05, Final residual = 6.3637728e-08, No Iterations 3
time step continuity errors : sum local = 1.011849e-08, global = -1.8550493e-10, cumulative = 0.00022562203
ExecutionTime = 238.56413 s  ClockTime = 240 s

Time = 1157s

smoothSolver:  Solving for Ux, Initial residual = 1.3542807e-06, Final residual = 4.9275916e-08, No Iterations 3
smoothSolver:  Solving for Uy, Initial residual = 9.5082092e-06, Final residual = 3.4702e-07, No Iterations 3
smoothSolver:  Solving for Uz, Initial residual = 7.3352393e-07, Final residual = 2.6643355e-08, No Iterations 3
GAMG:  Solving for p, Initial residual = 1.1783404e-05, Final residual = 6.2923854e-08, No Iterations 3
time step continuity errors : sum local = 1.0004978e-08, global = -1.7956444e-10, cumulative = 0.00022562185
ExecutionTime = 238.76605 s  ClockTime = 241 s

Time = 1158s

smoothSolver:  Solving for Ux, Initial residual = 1.342428e-06, Final residual = 4.884277e-08, No Iterations 3
smoothSolver:  Solving for Uy, Initial residual = 9.4187118e-06, Final residual = 3.4405932e-07, No Iterations 3
smoothSolver:  Solving for Uz, Initial residual = 7.277953e-07, Final residual = 2.6434484e-08, No Iterations 3
GAMG:  Solving for p, Initial residual = 1.1675628e-05, Final residual = 6.2224059e-08, No Iterations 3
time step continuity errors : sum local = 9.8937052e-09, global = -1.7473786e-10, cumulative = 0.00022562167
ExecutionTime = 238.97139 s  ClockTime = 241 s

Time = 1159s

smoothSolver:  Solving for Ux, Initial residual = 1.3307045e-06, Final residual = 4.8414258e-08, No Iterations 3
smoothSolver:  Solving for Uy, Initial residual = 9.3306938e-06, Final residual = 3.4109732e-07, No Iterations 3
smoothSolver:  Solving for Uz, Initial residual = 7.2205187e-07, Final residual = 2.6227469e-08, No Iterations 3
GAMG:  Solving for p, Initial residual = 1.1568902e-05, Final residual = 6.1548665e-08, No Iterations 3
time step continuity errors : sum local = 9.7863122e-09, global = -1.6969018e-10, cumulative = 0.0002256215
ExecutionTime = 239.1733 s  ClockTime = 241 s

Time = 1160s

smoothSolver:  Solving for Ux, Initial residual = 1.3191837e-06, Final residual = 4.7993943e-08, No Iterations 3
smoothSolver:  Solving for Uy, Initial residual = 9.2441292e-06, Final residual = 3.3814842e-07, No Iterations 3
smoothSolver:  Solving for Uz, Initial residual = 7.1633227e-07, Final residual = 2.6021018e-08, No Iterations 3
GAMG:  Solving for p, Initial residual = 1.1461902e-05, Final residual = 6.1008394e-08, No Iterations 3
time step continuity errors : sum local = 9.7004041e-09, global = -1.647535e-10, cumulative = 0.00022562134
ExecutionTime = 239.3779 s  ClockTime = 241 s

Time = 1161s

smoothSolver:  Solving for Ux, Initial residual = 1.3077665e-06, Final residual = 4.757795e-08, No Iterations 3
smoothSolver:  Solving for Uy, Initial residual = 9.1582124e-06, Final residual = 3.3515722e-07, No Iterations 3
smoothSolver:  Solving for Uz, Initial residual = 7.106906e-07, Final residual = 2.5814929e-08, No Iterations 3
GAMG:  Solving for p, Initial residual = 1.1355738e-05, Final residual = 6.0499154e-08, No Iterations 3
time step continuity errors : sum local = 9.61943e-09, global = -1.6061365e-10, cumulative = 0.00022562118
ExecutionTime = 239.58154 s  ClockTime = 241 s

Time = 1162s

smoothSolver:  Solving for Ux, Initial residual = 1.2964354e-06, Final residual = 4.7168876e-08, No Iterations 3
smoothSolver:  Solving for Uy, Initial residual = 9.0735926e-06, Final residual = 3.3208892e-07, No Iterations 3
smoothSolver:  Solving for Uz, Initial residual = 7.0508463e-07, Final residual = 2.5611775e-08, No Iterations 3
GAMG:  Solving for p, Initial residual = 1.1252098e-05, Final residual = 5.9961681e-08, No Iterations 3
time step continuity errors : sum local = 9.533967e-09, global = -1.5741383e-10, cumulative = 0.00022562102
ExecutionTime = 239.78439 s  ClockTime = 242 s

Time = 1163s

smoothSolver:  Solving for Ux, Initial residual = 1.2851888e-06, Final residual = 4.6767323e-08, No Iterations 3
smoothSolver:  Solving for Uy, Initial residual = 8.9895756e-06, Final residual = 3.2896415e-07, No Iterations 3
smoothSolver:  Solving for Uz, Initial residual = 6.9950844e-07, Final residual = 2.5410758e-08, No Iterations 3
GAMG:  Solving for p, Initial residual = 1.1151382e-05, Final residual = 5.9404362e-08, No Iterations 3
time step continuity errors : sum local = 9.4453487e-09, global = -1.5358763e-10, cumulative = 0.00022562087
ExecutionTime = 239.98949 s  ClockTime = 242 s

Time = 1164s

smoothSolver:  Solving for Ux, Initial residual = 1.2740707e-06, Final residual = 4.6366795e-08, No Iterations 3
smoothSolver:  Solving for Uy, Initial residual = 8.9061279e-06, Final residual = 3.2581236e-07, No Iterations 3
smoothSolver:  Solving for Uz, Initial residual = 6.9398895e-07, Final residual = 2.5211123e-08, No Iterations 3
GAMG:  Solving for p, Initial residual = 1.1053879e-05, Final residual = 5.8823506e-08, No Iterations 3
time step continuity errors : sum local = 9.352988e-09, global = -1.4975216e-10, cumulative = 0.00022562072
ExecutionTime = 240.19113 s  ClockTime = 242 s

Time = 1165s

smoothSolver:  Solving for Ux, Initial residual = 1.2631073e-06, Final residual = 4.5970145e-08, No Iterations 3
smoothSolver:  Solving for Uy, Initial residual = 8.823058e-06, Final residual = 3.2264675e-07, No Iterations 3
smoothSolver:  Solving for Uz, Initial residual = 6.8855838e-07, Final residual = 2.5012947e-08, No Iterations 3
GAMG:  Solving for p, Initial residual = 1.095749e-05, Final residual = 5.8240611e-08, No Iterations 3
time step continuity errors : sum local = 9.2603034e-09, global = -1.4562945e-10, cumulative = 0.00022562057
ExecutionTime = 240.39479 s  ClockTime = 242 s

Time = 1166s

smoothSolver:  Solving for Ux, Initial residual = 1.2522854e-06, Final residual = 4.5575854e-08, No Iterations 3
smoothSolver:  Solving for Uy, Initial residual = 8.7405369e-06, Final residual = 3.1949052e-07, No Iterations 3
smoothSolver:  Solving for Uz, Initial residual = 6.8313077e-07, Final residual = 2.4814514e-08, No Iterations 3
GAMG:  Solving for p, Initial residual = 1.0862705e-05, Final residual = 5.7726373e-08, No Iterations 3
time step continuity errors : sum local = 9.1785352e-09, global = -1.5469294e-10, cumulative = 0.00022562042
ExecutionTime = 240.59778 s  ClockTime = 242 s

Time = 1167s

smoothSolver:  Solving for Ux, Initial residual = 1.24155e-06, Final residual = 4.5188008e-08, No Iterations 3
smoothSolver:  Solving for Uy, Initial residual = 8.6581667e-06, Final residual = 3.163422e-07, No Iterations 3
smoothSolver:  Solving for Uz, Initial residual = 6.7770651e-07, Final residual = 2.4617329e-08, No Iterations 3
GAMG:  Solving for p, Initial residual = 1.0769838e-05, Final residual = 5.7274123e-08, No Iterations 3
time step continuity errors : sum local = 9.1066233e-09, global = -1.4154344e-10, cumulative = 0.00022562028
ExecutionTime = 240.80249 s  ClockTime = 243 s

Time = 1168s

smoothSolver:  Solving for Ux, Initial residual = 1.2309874e-06, Final residual = 4.4810824e-08, No Iterations 3
smoothSolver:  Solving for Uy, Initial residual = 8.5759404e-06, Final residual = 3.1319894e-07, No Iterations 3
smoothSolver:  Solving for Uz, Initial residual = 6.7233321e-07, Final residual = 2.4419842e-08, No Iterations 3
GAMG:  Solving for p, Initial residual = 1.0678117e-05, Final residual = 5.684178e-08, No Iterations 3
time step continuity errors : sum local = 9.0378767e-09, global = -1.379414e-10, cumulative = 0.00022562014
ExecutionTime = 241.00561 s  ClockTime = 243 s

Time = 1169s

smoothSolver:  Solving for Ux, Initial residual = 1.2205229e-06, Final residual = 4.4437885e-08, No Iterations 3
smoothSolver:  Solving for Uy, Initial residual = 8.4943848e-06, Final residual = 3.1004304e-07, No Iterations 3
smoothSolver:  Solving for Uz, Initial residual = 6.6704937e-07, Final residual = 2.42236e-08, No Iterations 3
GAMG:  Solving for p, Initial residual = 1.0586435e-05, Final residual = 5.6308239e-08, No Iterations 3
time step continuity errors : sum local = 8.9530397e-09, global = -1.4681367e-10, cumulative = 0.00022561999
ExecutionTime = 241.20961 s  ClockTime = 243 s

Time = 1170s

smoothSolver:  Solving for Ux, Initial residual = 1.2101475e-06, Final residual = 4.4074561e-08, No Iterations 3
smoothSolver:  Solving for Uy, Initial residual = 8.4130226e-06, Final residual = 3.0690458e-07, No Iterations 3
smoothSolver:  Solving for Uz, Initial residual = 6.6175059e-07, Final residual = 2.402767e-08, No Iterations 3
GAMG:  Solving for p, Initial residual = 1.049301e-05, Final residual = 5.5982534e-08, No Iterations 3
time step continuity errors : sum local = 8.9012488e-09, global = -1.3475701e-10, cumulative = 0.00022561986
ExecutionTime = 241.4134 s  ClockTime = 243 s

Time = 1171s

smoothSolver:  Solving for Ux, Initial residual = 1.1999849e-06, Final residual = 4.3715523e-08, No Iterations 3
smoothSolver:  Solving for Uy, Initial residual = 8.3324547e-06, Final residual = 3.0380292e-07, No Iterations 3
smoothSolver:  Solving for Uz, Initial residual = 6.5650048e-07, Final residual = 2.3834223e-08, No Iterations 3
GAMG:  Solving for p, Initial residual = 1.0400358e-05, Final residual = 5.5515705e-08, No Iterations 3
time step continuity errors : sum local = 8.8270192e-09, global = -1.2956464e-10, cumulative = 0.00022561973
ExecutionTime = 241.61823 s  ClockTime = 244 s

Time = 1172s

smoothSolver:  Solving for Ux, Initial residual = 1.189968e-06, Final residual = 4.3360286e-08, No Iterations 3
smoothSolver:  Solving for Uy, Initial residual = 8.251975e-06, Final residual = 3.0074931e-07, No Iterations 3
smoothSolver:  Solving for Uz, Initial residual = 6.5128167e-07, Final residual = 2.3643224e-08, No Iterations 3
GAMG:  Solving for p, Initial residual = 1.0308295e-05, Final residual = 5.5030817e-08, No Iterations 3
time step continuity errors : sum local = 8.7499185e-09, global = -1.2255419e-10, cumulative = 0.0002256196
ExecutionTime = 241.8201 s  ClockTime = 244 s

Time = 1173s

smoothSolver:  Solving for Ux, Initial residual = 1.1801118e-06, Final residual = 4.300957e-08, No Iterations 3
smoothSolver:  Solving for Uy, Initial residual = 8.1718934e-06, Final residual = 2.9776587e-07, No Iterations 3
smoothSolver:  Solving for Uz, Initial residual = 6.4611002e-07, Final residual = 2.345258e-08, No Iterations 3
GAMG:  Solving for p, Initial residual = 1.0216816e-05, Final residual = 5.4605843e-08, No Iterations 3
time step continuity errors : sum local = 8.682344e-09, global = -1.2683618e-10, cumulative = 0.00022561948
ExecutionTime = 242.02371 s  ClockTime = 244 s

Time = 1174s

smoothSolver:  Solving for Ux, Initial residual = 1.1703583e-06, Final residual = 4.2664765e-08, No Iterations 3
smoothSolver:  Solving for Uy, Initial residual = 8.0923829e-06, Final residual = 2.9482317e-07, No Iterations 3
smoothSolver:  Solving for Uz, Initial residual = 6.4099757e-07, Final residual = 2.3260969e-08, No Iterations 3
GAMG:  Solving for p, Initial residual = 1.0125609e-05, Final residual = 5.4219379e-08, No Iterations 3
time step continuity errors : sum local = 8.6208928e-09, global = -1.2365931e-10, cumulative = 0.00022561935
ExecutionTime = 242.2271 s  ClockTime = 244 s

Time = 1175s

smoothSolver:  Solving for Ux, Initial residual = 1.1606762e-06, Final residual = 4.2321935e-08, No Iterations 3
smoothSolver:  Solving for Uy, Initial residual = 8.0128006e-06, Final residual = 2.9192345e-07, No Iterations 3
smoothSolver:  Solving for Uz, Initial residual = 6.3591368e-07, Final residual = 2.3069265e-08, No Iterations 3
GAMG:  Solving for p, Initial residual = 1.0034806e-05, Final residual = 5.3847031e-08, No Iterations 3
time step continuity errors : sum local = 8.5616861e-09, global = -1.0723781e-10, cumulative = 0.00022561925
ExecutionTime = 242.43054 s  ClockTime = 244 s

Time = 1176s

smoothSolver:  Solving for Ux, Initial residual = 1.1511594e-06, Final residual = 4.1983262e-08, No Iterations 3
smoothSolver:  Solving for Uy, Initial residual = 7.9336336e-06, Final residual = 2.8902723e-07, No Iterations 3
smoothSolver:  Solving for Uz, Initial residual = 6.3087115e-07, Final residual = 2.2878345e-08, No Iterations 3
GAMG:  Solving for p, Initial residual = 9.9443154e-06, Final residual = 5.3462103e-08, No Iterations 3
time step continuity errors : sum local = 8.5004792e-09, global = -1.1562314e-10, cumulative = 0.00022561913
ExecutionTime = 242.63772 s  ClockTime = 245 s


SIMPLE solution converged in 1176 iterations

End

Finalising parallel run
